data_CNAgCd
_audit_creation_method           'pos2cif.pl'
_cell_length_a               12.3170003891
_cell_length_b               12.3170003891315
_cell_length_c               20
_cell_angle_alpha            90
_cell_angle_beta             90
_cell_angle_gamma            120.010002136348
_symmetry_space_group_H-M        'P1'
_symmetry_Int_Tables_number      '1'
_symmetry_cell_setting           'triclinic'
loop_
_symmetry_equiv_pos_as_xyz
x,y,z

loop_
_atom_site_label
_atom_site_type_symbol
_atom_site_occupancy
_atom_site_fract_x
_atom_site_fract_y
_atom_site_fract_z
_atom_site_U_iso_or_equiv
C1  C  1.0000  -0.00109  0.20043  0.12904  0.0000
C2  C  1.0000  0.06530  0.13301  0.12638  0.0000
C3  C  1.0000  0.19796  0.19742  0.12961  0.0000
C4  C  1.0000  0.26403  0.12913  0.13021  0.0000
C5  C  1.0000  0.39568  0.19436  0.13529  0.0000
C6  C  1.0000  0.46496  0.13072  0.13623  0.0000
C7  C  1.0000  0.59781  0.20099  0.13985  0.0000
C8  C  1.0000  0.66662  0.13650  0.13729  0.0000
C9  C  1.0000  0.79932  0.20393  0.13586  0.0000
C10  C  1.0000  0.86676  0.13709  0.13097  0.0000
C11  C  1.0000  0.99673  0.40022  0.13851  0.0000
C12  C  1.0000  0.06348  0.33226  0.13354  0.0000
C13  C  1.0000  0.19632  0.39790  0.13765  0.0000
C14  C  1.0000  0.26493  0.32849  0.13904  0.0000
C15  C  1.0000  0.45865  0.32497  0.14751  0.0000
C16  C  1.0000  0.65773  0.33371  0.14809  0.0000
C17  C  1.0000  0.79394  0.40447  0.14753  0.0000
C18  C  1.0000  0.86247  0.33719  0.14029  0.0000
C19  C  1.0000  0.00053  0.60113  0.14369  0.0000
C20  C  1.0000  0.06577  0.53278  0.14205  0.0000
C21  C  1.0000  0.20046  0.59383  0.14456  0.0000
C22  C  1.0000  0.86642  0.54015  0.14932  0.0000
C23  C  1.0000  0.00292  0.80137  0.13620  0.0000
C24  C  1.0000  0.07017  0.73388  0.14032  0.0000
C25  C  1.0000  0.20460  0.79686  0.14062  0.0000
C26  C  1.0000  0.27343  0.72980  0.14688  0.0000
C27  C  1.0000  0.40953  0.80061  0.15090  0.0000
C28  C  1.0000  0.61009  0.81007  0.15179  0.0000
C29  C  1.0000  0.80106  0.80466  0.14243  0.0000
C30  C  1.0000  0.87027  0.73610  0.14325  0.0000
C31  C  1.0000  0.00122  0.00040  0.12749  0.0000
C32  C  1.0000  0.06770  0.93305  0.12980  0.0000
C33  C  1.0000  0.20011  0.99663  0.13029  0.0000
C34  C  1.0000  0.26781  0.93012  0.13562  0.0000
C35  C  1.0000  0.40055  0.99753  0.13666  0.0000
C36  C  1.0000  0.46950  0.93330  0.14169  0.0000
C37  C  1.0000  0.60238  0.00352  0.13878  0.0000
C38  C  1.0000  0.67183  0.94001  0.13870  0.0000
C39  C  1.0000  0.80309  0.00463  0.13235  0.0000
C40  C  1.0000  0.86880  0.93610  0.13236  0.0000
N1  N  1.0000  0.58475  0.38865  0.15682  0.0000
N2  N  1.0000  0.80865  0.61020  0.15453  0.0000
N3  N  1.0000  0.67447  0.74576  0.15464  0.0000
N4  N  1.0000  0.39161  0.38619  0.15321  0.0000
N5  N  1.0000  0.25789  0.52464  0.14383  0.0000
N6  N  1.0000  0.48431  0.74865  0.16342  0.0000
Ag1  Ag  1.0000  0.43405  0.56262  0.18929  0.0000
Cd1  Cd  1.0000  0.64147  0.56513  0.21760  0.0000
