data_CNAgCr
_audit_creation_method           'pos2cif.pl'
_cell_length_a               12.3170003891
_cell_length_b               12.3170003891315
_cell_length_c               20
_cell_angle_alpha            90
_cell_angle_beta             90
_cell_angle_gamma            120.010002136348
_symmetry_space_group_H-M        'P1'
_symmetry_Int_Tables_number      '1'
_symmetry_cell_setting           'triclinic'
loop_
_symmetry_equiv_pos_as_xyz
x,y,z

loop_
_atom_site_label
_atom_site_type_symbol
_atom_site_occupancy
_atom_site_fract_x
_atom_site_fract_y
_atom_site_fract_z
_atom_site_U_iso_or_equiv
C1  C  1.0000  0.00138  0.20203  0.13541  0.0000
C2  C  1.0000  0.06861  0.13579  0.13603  0.0000
C3  C  1.0000  0.20194  0.20149  0.13878  0.0000
C4  C  1.0000  0.26445  0.12955  0.14007  0.0000
C5  C  1.0000  0.39589  0.19247  0.14195  0.0000
C6  C  1.0000  0.46524  0.12905  0.14143  0.0000
C7  C  1.0000  0.59839  0.19900  0.14117  0.0000
C8  C  1.0000  0.66731  0.13487  0.13849  0.0000
C9  C  1.0000  0.80024  0.20338  0.13716  0.0000
C10  C  1.0000  0.86848  0.13742  0.13476  0.0000
C11  C  1.0000  0.99789  0.40052  0.14092  0.0000
C12  C  1.0000  0.06639  0.33389  0.13880  0.0000
C13  C  1.0000  0.20009  0.40123  0.14361  0.0000
C14  C  1.0000  0.27149  0.33495  0.14224  0.0000
C15  C  1.0000  0.45965  0.32337  0.14537  0.0000
C16  C  1.0000  0.65988  0.33177  0.14308  0.0000
C17  C  1.0000  0.79454  0.40364  0.14204  0.0000
C18  C  1.0000  0.86384  0.33678  0.13977  0.0000
C19  C  1.0000  -0.00235  0.60068  0.14361  0.0000
C20  C  1.0000  0.06448  0.53293  0.14433  0.0000
C21  C  1.0000  0.19948  0.59402  0.14904  0.0000
C22  C  1.0000  0.86233  0.53877  0.14254  0.0000
C23  C  1.0000  0.00193  0.80149  0.14068  0.0000
C24  C  1.0000  0.06866  0.73361  0.14360  0.0000
C25  C  1.0000  0.20321  0.79645  0.14525  0.0000
C26  C  1.0000  0.27221  0.72936  0.14866  0.0000
C27  C  1.0000  0.40873  0.79852  0.14744  0.0000
C28  C  1.0000  0.60707  0.80617  0.14186  0.0000
C29  C  1.0000  0.80225  0.80541  0.13856  0.0000
C30  C  1.0000  0.86891  0.73698  0.14005  0.0000
C31  C  1.0000  0.00324  0.00265  0.13626  0.0000
C32  C  1.0000  0.06776  0.93387  0.13896  0.0000
C33  C  1.0000  0.20008  0.99718  0.14030  0.0000
C34  C  1.0000  0.26740  0.93001  0.14271  0.0000
C35  C  1.0000  0.40035  0.99632  0.14187  0.0000
C36  C  1.0000  0.46924  0.93167  0.14207  0.0000
C37  C  1.0000  0.60239  0.00170  0.13854  0.0000
C38  C  1.0000  0.67184  0.93838  0.13628  0.0000
C39  C  1.0000  0.80410  0.00514  0.13433  0.0000
C40  C  1.0000  0.87031  0.93757  0.13571  0.0000
N1  N  1.0000  0.58767  0.38796  0.14605  0.0000
N2  N  1.0000  0.80098  0.60758  0.14161  0.0000
N3  N  1.0000  0.67175  0.74077  0.14134  0.0000
N4  N  1.0000  0.40306  0.39534  0.14719  0.0000
N5  N  1.0000  0.25975  0.52708  0.15210  0.0000
N6  N  1.0000  0.48145  0.74214  0.15100  0.0000
Ag1  Ag  1.0000  0.43541  0.57376  0.21518  0.0000
Cr1  Cr  1.0000  0.61761  0.55643  0.14375  0.0000
