data_CNAgCu
_audit_creation_method           'pos2cif.pl'
_cell_length_a               12.3170003891
_cell_length_b               12.3170003891315
_cell_length_c               20
_cell_angle_alpha            90
_cell_angle_beta             90
_cell_angle_gamma            120.010002136348
_symmetry_space_group_H-M        'P1'
_symmetry_Int_Tables_number      '1'
_symmetry_cell_setting           'triclinic'
loop_
_symmetry_equiv_pos_as_xyz
x,y,z

loop_
_atom_site_label
_atom_site_type_symbol
_atom_site_occupancy
_atom_site_fract_x
_atom_site_fract_y
_atom_site_fract_z
_atom_site_U_iso_or_equiv
C1  C  1.0000  0.99896  0.20072  0.13501  0.0000
C2  C  1.0000  0.06556  0.13335  0.13413  0.0000
C3  C  1.0000  0.19779  0.19744  0.14028  0.0000
C4  C  1.0000  0.26381  0.12905  0.14062  0.0000
C5  C  1.0000  0.39509  0.19357  0.14541  0.0000
C6  C  1.0000  0.46485  0.13056  0.14334  0.0000
C7  C  1.0000  0.59778  0.20194  0.14380  0.0000
C8  C  1.0000  0.66626  0.13662  0.13895  0.0000
C9  C  1.0000  0.79892  0.20396  0.13734  0.0000
C10  C  1.0000  0.86673  0.13722  0.13359  0.0000
C11  C  1.0000  0.99643  0.40033  0.14146  0.0000
C12  C  1.0000  0.06339  0.33242  0.14086  0.0000
C13  C  1.0000  0.19608  0.39868  0.14918  0.0000
C14  C  1.0000  0.26520  0.32847  0.15058  0.0000
C15  C  1.0000  0.45698  0.32449  0.15482  0.0000
C16  C  1.0000  0.65760  0.33596  0.14783  0.0000
C17  C  1.0000  0.79336  0.40515  0.14266  0.0000
C18  C  1.0000  0.86176  0.33738  0.14006  0.0000
C19  C  1.0000  0.00077  0.60136  0.14110  0.0000
C20  C  1.0000  0.06574  0.53272  0.14413  0.0000
C21  C  1.0000  0.20025  0.59317  0.14931  0.0000
C22  C  1.0000  0.86612  0.54062  0.13938  0.0000
C23  C  1.0000  0.00447  0.80207  0.13540  0.0000
C24  C  1.0000  0.07075  0.73380  0.13938  0.0000
C25  C  1.0000  0.20527  0.79655  0.14197  0.0000
C26  C  1.0000  0.27340  0.72902  0.14695  0.0000
C27  C  1.0000  0.40990  0.79912  0.14609  0.0000
C28  C  1.0000  0.60738  0.80570  0.14054  0.0000
C29  C  1.0000  0.80171  0.80436  0.13435  0.0000
C30  C  1.0000  0.87175  0.73642  0.13393  0.0000
C31  C  1.0000  0.00197  0.00109  0.13175  0.0000
C32  C  1.0000  0.06872  0.93395  0.13433  0.0000
C33  C  1.0000  0.20059  0.99685  0.13760  0.0000
C34  C  1.0000  0.26828  0.93012  0.14021  0.0000
C35  C  1.0000  0.40098  0.99752  0.14126  0.0000
C36  C  1.0000  0.46959  0.93259  0.14117  0.0000
C37  C  1.0000  0.60236  0.00296  0.13776  0.0000
C38  C  1.0000  0.67138  0.93851  0.13439  0.0000
C39  C  1.0000  0.80303  0.00464  0.13177  0.0000
C40  C  1.0000  0.86907  0.93635  0.13118  0.0000
N1  N  1.0000  0.58493  0.39251  0.15668  0.0000
N2  N  1.0000  0.80822  0.60966  0.13427  0.0000
N3  N  1.0000  0.67310  0.74052  0.14128  0.0000
N4  N  1.0000  0.39113  0.38591  0.16167  0.0000
N5  N  1.0000  0.25792  0.52428  0.15528  0.0000
N6  N  1.0000  0.48203  0.74269  0.14973  0.0000
Ag1  Ag  1.0000  0.44674  0.57140  0.20696  0.0000
Cu1  Cu  1.0000  0.63292  0.56737  0.15223  0.0000
