data_CNAgFe
_audit_creation_method           'pos2cif.pl'
_cell_length_a               12.3170003891
_cell_length_b               12.3170003891315
_cell_length_c               20
_cell_angle_alpha            90
_cell_angle_beta             90
_cell_angle_gamma            120.010002136348
_symmetry_space_group_H-M        'P1'
_symmetry_Int_Tables_number      '1'
_symmetry_cell_setting           'triclinic'
loop_
_symmetry_equiv_pos_as_xyz
x,y,z

loop_
_atom_site_label
_atom_site_type_symbol
_atom_site_occupancy
_atom_site_fract_x
_atom_site_fract_y
_atom_site_fract_z
_atom_site_U_iso_or_equiv
C1  C  1.0000  0.99831  0.20002  0.14165  0.0000
C2  C  1.0000  0.06519  0.13322  0.14117  0.0000
C3  C  1.0000  0.19687  0.19639  0.14150  0.0000
C4  C  1.0000  0.26379  0.12892  0.14173  0.0000
C5  C  1.0000  0.39553  0.19341  0.14250  0.0000
C6  C  1.0000  0.46498  0.13007  0.14291  0.0000
C7  C  1.0000  0.59772  0.20163  0.14345  0.0000
C8  C  1.0000  0.66620  0.13621  0.14323  0.0000
C9  C  1.0000  0.79865  0.20376  0.14289  0.0000
C10  C  1.0000  0.86663  0.13723  0.14205  0.0000
C11  C  1.0000  0.99508  0.39990  0.14311  0.0000
C12  C  1.0000  0.06134  0.33125  0.14231  0.0000
C13  C  1.0000  0.19328  0.39598  0.14265  0.0000
C14  C  1.0000  0.26196  0.32740  0.14250  0.0000
C15  C  1.0000  0.45795  0.32475  0.14348  0.0000
C16  C  1.0000  0.65839  0.33543  0.14393  0.0000
C17  C  1.0000  0.79315  0.40514  0.14394  0.0000
C18  C  1.0000  0.86154  0.33710  0.14333  0.0000
C19  C  1.0000  0.99869  0.60138  0.14367  0.0000
C20  C  1.0000  0.06335  0.53263  0.14355  0.0000
C21  C  1.0000  0.19786  0.59332  0.14372  0.0000
C22  C  1.0000  0.86396  0.54016  0.14401  0.0000
C23  C  1.0000  0.00504  0.80274  0.14249  0.0000
C24  C  1.0000  0.07078  0.73409  0.14315  0.0000
C25  C  1.0000  0.20481  0.79653  0.14322  0.0000
C26  C  1.0000  0.27314  0.72863  0.14396  0.0000
C27  C  1.0000  0.40949  0.79820  0.14436  0.0000
C28  C  1.0000  0.61242  0.80848  0.14409  0.0000
C29  C  1.0000  0.80651  0.80747  0.14294  0.0000
C30  C  1.0000  0.87330  0.73968  0.14315  0.0000
C31  C  1.0000  0.00293  0.00167  0.14127  0.0000
C32  C  1.0000  0.06918  0.93444  0.14162  0.0000
C33  C  1.0000  0.20106  0.99717  0.14179  0.0000
C34  C  1.0000  0.26849  0.93008  0.14263  0.0000
C35  C  1.0000  0.40113  0.99697  0.14299  0.0000
C36  C  1.0000  0.46987  0.93185  0.14361  0.0000
C37  C  1.0000  0.60281  0.00271  0.14333  0.0000
C38  C  1.0000  0.67355  0.94004  0.14299  0.0000
C39  C  1.0000  0.80476  0.00584  0.14208  0.0000
C40  C  1.0000  0.87139  0.93852  0.14185  0.0000
N1  N  1.0000  0.58632  0.39444  0.14425  0.0000
N2  N  1.0000  0.80544  0.61061  0.14418  0.0000
N3  N  1.0000  0.67723  0.74262  0.14407  0.0000
N4  N  1.0000  0.39186  0.38627  0.14387  0.0000
N5  N  1.0000  0.25352  0.52313  0.14352  0.0000
N6  N  1.0000  0.48539  0.74449  0.14541  0.0000
Ag1  Ag  1.0000  0.43995  0.56337  0.14675  0.0000
Fe1  Fe  1.0000  0.63624  0.56578  0.14508  0.0000
