data_CNHfW
_audit_creation_method           'pos2cif.pl'
_cell_length_a               12.3170003891
_cell_length_b               12.3170003891315
_cell_length_c               20
_cell_angle_alpha            90
_cell_angle_beta             90
_cell_angle_gamma            120.010002136348
_symmetry_space_group_H-M        'P1'
_symmetry_Int_Tables_number      '1'
_symmetry_cell_setting           'triclinic'
loop_
_symmetry_equiv_pos_as_xyz
x,y,z

loop_
_atom_site_label
_atom_site_type_symbol
_atom_site_occupancy
_atom_site_fract_x
_atom_site_fract_y
_atom_site_fract_z
_atom_site_U_iso_or_equiv
C1  C  1.0000  0.00184  0.20250  0.13537  0.0000
C2  C  1.0000  0.06821  0.13530  0.13373  0.0000
C3  C  1.0000  0.20081  0.19981  0.13772  0.0000
C4  C  1.0000  0.26454  0.12943  0.13810  0.0000
C5  C  1.0000  0.39602  0.19333  0.14368  0.0000
C6  C  1.0000  0.46560  0.12958  0.14444  0.0000
C7  C  1.0000  0.59870  0.19917  0.14821  0.0000
C8  C  1.0000  0.66766  0.13492  0.14216  0.0000
C9  C  1.0000  0.80080  0.20401  0.14063  0.0000
C10  C  1.0000  0.86877  0.13799  0.13476  0.0000
C11  C  1.0000  -0.00153  0.40101  0.14419  0.0000
C12  C  1.0000  0.06656  0.33410  0.14094  0.0000
C13  C  1.0000  0.19970  0.39864  0.14676  0.0000
C14  C  1.0000  0.26707  0.33172  0.14526  0.0000
C15  C  1.0000  0.45898  0.32226  0.15519  0.0000
C16  C  1.0000  0.66091  0.33121  0.15466  0.0000
C17  C  1.0000  0.79490  0.40459  0.14883  0.0000
C18  C  1.0000  0.86466  0.33754  0.14461  0.0000
C19  C  1.0000  -0.00217  0.60104  0.14368  0.0000
C20  C  1.0000  0.06655  0.53389  0.14657  0.0000
C21  C  1.0000  0.20143  0.59554  0.15087  0.0000
C22  C  1.0000  0.86193  0.53923  0.14396  0.0000
C23  C  1.0000  0.00194  0.80133  0.13597  0.0000
C24  C  1.0000  0.06894  0.73374  0.14077  0.0000
C25  C  1.0000  0.20307  0.79684  0.14256  0.0000
C26  C  1.0000  0.27261  0.72955  0.14790  0.0000
C27  C  1.0000  0.40821  0.79973  0.14628  0.0000
C28  C  1.0000  0.60933  0.80751  0.13526  0.0000
C29  C  1.0000  0.80430  0.80630  0.13032  0.0000
C30  C  1.0000  0.86898  0.73735  0.13458  0.0000
C31  C  1.0000  0.00318  0.00245  0.13166  0.0000
C32  C  1.0000  0.06779  0.93373  0.13394  0.0000
C33  C  1.0000  0.20032  -0.00265  0.13654  0.0000
C34  C  1.0000  0.26767  0.93008  0.13982  0.0000
C35  C  1.0000  0.40076  -0.00292  0.14147  0.0000
C36  C  1.0000  0.46973  0.93212  0.14171  0.0000
C37  C  1.0000  0.60304  0.00228  0.13898  0.0000
C38  C  1.0000  0.67249  0.93864  0.13336  0.0000
C39  C  1.0000  0.80495  0.00610  0.13087  0.0000
C40  C  1.0000  0.87055  0.93794  0.12998  0.0000
N1  N  1.0000  0.58697  0.38666  0.16389  0.0000
N2  N  1.0000  0.79817  0.60794  0.13869  0.0000
N3  N  1.0000  0.67182  0.73905  0.12958  0.0000
N4  N  1.0000  0.39887  0.39447  0.15998  0.0000
N5  N  1.0000  0.26398  0.52703  0.15762  0.0000
N6  N  1.0000  0.48265  0.74266  0.14941  0.0000
Hf1  Hf  1.0000  0.44474  0.57969  0.20204  0.0000
W1  W  1.0000  0.60004  0.54672  0.13445  0.0000
