data_CNHfY
_audit_creation_method           'pos2cif.pl'
_cell_length_a               12.3170003891
_cell_length_b               12.3170003891315
_cell_length_c               20
_cell_angle_alpha            90
_cell_angle_beta             90
_cell_angle_gamma            120.010002136348
_symmetry_space_group_H-M        'P1'
_symmetry_Int_Tables_number      '1'
_symmetry_cell_setting           'triclinic'
loop_
_symmetry_equiv_pos_as_xyz
x,y,z

loop_
_atom_site_label
_atom_site_type_symbol
_atom_site_occupancy
_atom_site_fract_x
_atom_site_fract_y
_atom_site_fract_z
_atom_site_U_iso_or_equiv
C1  C  1.0000  -0.00063  0.20104  0.14095  0.0000
C2  C  1.0000  0.06295  0.13177  0.13793  0.0000
C3  C  1.0000  0.19547  0.19677  0.13998  0.0000
C4  C  1.0000  0.26144  0.12899  0.13625  0.0000
C5  C  1.0000  0.39419  0.19537  0.13956  0.0000
C6  C  1.0000  0.46361  0.13201  0.13824  0.0000
C7  C  1.0000  0.59710  0.20193  0.14204  0.0000
C8  C  1.0000  0.66642  0.13756  0.13839  0.0000
C9  C  1.0000  0.79927  0.20390  0.14226  0.0000
C10  C  1.0000  0.86673  0.13705  0.13916  0.0000
C11  C  1.0000  -0.00175  0.40056  0.14750  0.0000
C12  C  1.0000  0.06577  0.33328  0.14532  0.0000
C13  C  1.0000  0.19877  0.39848  0.14833  0.0000
C14  C  1.0000  0.26252  0.32814  0.14635  0.0000
C15  C  1.0000  0.45807  0.32550  0.14989  0.0000
C16  C  1.0000  0.65841  0.33285  0.15156  0.0000
C17  C  1.0000  0.79508  0.40427  0.15187  0.0000
C18  C  1.0000  0.86456  0.33698  0.14787  0.0000
C19  C  1.0000  0.00124  0.60082  0.14432  0.0000
C20  C  1.0000  0.06919  0.53379  0.14604  0.0000
C21  C  1.0000  0.20446  0.59621  0.14548  0.0000
C22  C  1.0000  0.86697  0.53832  0.14998  0.0000
C23  C  1.0000  -0.00204  0.79995  0.13700  0.0000
C24  C  1.0000  0.06722  0.73345  0.13965  0.0000
C25  C  1.0000  0.20073  0.79720  0.13652  0.0000
C26  C  1.0000  0.27066  0.73035  0.13785  0.0000
C27  C  1.0000  0.40500  0.80330  0.13152  0.0000
C28  C  1.0000  0.60592  0.81237  0.12896  0.0000
C29  C  1.0000  0.79403  0.79866  0.13521  0.0000
C30  C  1.0000  0.86407  0.73374  0.14122  0.0000
C31  C  1.0000  -0.00316  -0.00152  0.13452  0.0000
C32  C  1.0000  0.06352  0.93176  0.13349  0.0000
C33  C  1.0000  0.19696  0.99712  0.13340  0.0000
C34  C  1.0000  0.26518  0.93098  0.13368  0.0000
C35  C  1.0000  0.39810  -0.00050  0.13407  0.0000
C36  C  1.0000  0.46715  0.93526  0.13200  0.0000
C37  C  1.0000  0.60092  0.00570  0.13318  0.0000
C38  C  1.0000  0.67031  0.94260  0.13267  0.0000
C39  C  1.0000  0.80199  0.00519  0.13497  0.0000
C40  C  1.0000  0.86395  0.93291  0.13404  0.0000
N1  N  1.0000  0.58449  0.38893  0.16184  0.0000
N2  N  1.0000  0.80507  0.60649  0.15504  0.0000
N3  N  1.0000  0.66103  0.73792  0.13126  0.0000
N4  N  1.0000  0.39426  0.39136  0.15119  0.0000
N5  N  1.0000  0.26827  0.52882  0.15235  0.0000
N6  N  1.0000  0.47710  0.74643  0.12673  0.0000
Hf1  Hf  1.0000  0.47550  0.58685  0.16173  0.0000
Y1  Y  1.0000  0.67094  0.54019  0.23856  0.0000
