data_CNHfZn
_audit_creation_method           'pos2cif.pl'
_cell_length_a               12.3170003891
_cell_length_b               12.3170003891315
_cell_length_c               20
_cell_angle_alpha            90
_cell_angle_beta             90
_cell_angle_gamma            120.010002136348
_symmetry_space_group_H-M        'P1'
_symmetry_Int_Tables_number      '1'
_symmetry_cell_setting           'triclinic'
loop_
_symmetry_equiv_pos_as_xyz
x,y,z

loop_
_atom_site_label
_atom_site_type_symbol
_atom_site_occupancy
_atom_site_fract_x
_atom_site_fract_y
_atom_site_fract_z
_atom_site_U_iso_or_equiv
C1  C  1.0000  -0.00041  0.20078  0.13979  0.0000
C2  C  1.0000  0.06330  0.13148  0.13743  0.0000
C3  C  1.0000  0.19619  0.19675  0.13706  0.0000
C4  C  1.0000  0.26201  0.12886  0.13408  0.0000
C5  C  1.0000  0.39489  0.19581  0.13485  0.0000
C6  C  1.0000  0.46419  0.13240  0.13488  0.0000
C7  C  1.0000  0.59751  0.20255  0.13807  0.0000
C8  C  1.0000  0.66646  0.13782  0.13733  0.0000
C9  C  1.0000  0.79951  0.20390  0.14052  0.0000
C10  C  1.0000  0.86690  0.13681  0.13877  0.0000
C11  C  1.0000  -0.00138  0.40041  0.14614  0.0000
C12  C  1.0000  0.06584  0.33316  0.14341  0.0000
C13  C  1.0000  0.19921  0.39809  0.14524  0.0000
C14  C  1.0000  0.26368  0.32876  0.14120  0.0000
C15  C  1.0000  0.46091  0.32722  0.14094  0.0000
C16  C  1.0000  0.65857  0.33505  0.14496  0.0000
C17  C  1.0000  0.79515  0.40432  0.14893  0.0000
C18  C  1.0000  0.86429  0.33729  0.14546  0.0000
C19  C  1.0000  0.00181  0.60089  0.14673  0.0000
C20  C  1.0000  0.06956  0.53357  0.14662  0.0000
C21  C  1.0000  0.20495  0.59585  0.14661  0.0000
C22  C  1.0000  0.86700  0.53893  0.15182  0.0000
C23  C  1.0000  -0.00160  0.79944  0.14137  0.0000
C24  C  1.0000  0.06779  0.73341  0.14330  0.0000
C25  C  1.0000  0.20151  0.79738  0.13987  0.0000
C26  C  1.0000  0.27112  0.73048  0.14148  0.0000
C27  C  1.0000  0.40519  0.80280  0.13672  0.0000
C28  C  1.0000  0.60602  0.81205  0.13563  0.0000
C29  C  1.0000  0.79393  0.79763  0.14097  0.0000
C30  C  1.0000  0.86423  0.73194  0.14690  0.0000
C31  C  1.0000  -0.00293  -0.00209  0.13682  0.0000
C32  C  1.0000  0.06383  0.93130  0.13654  0.0000
C33  C  1.0000  0.19719  0.99670  0.13439  0.0000
C34  C  1.0000  0.26556  0.93074  0.13539  0.0000
C35  C  1.0000  0.39852  -0.00067  0.13417  0.0000
C36  C  1.0000  0.46745  0.93516  0.13449  0.0000
C37  C  1.0000  0.60103  0.00542  0.13497  0.0000
C38  C  1.0000  0.67052  0.94234  0.13580  0.0000
C39  C  1.0000  0.80220  0.00454  0.13693  0.0000
C40  C  1.0000  0.86373  0.93170  0.13776  0.0000
N1  N  1.0000  0.58654  0.39242  0.14886  0.0000
N2  N  1.0000  0.80525  0.60552  0.15844  0.0000
N3  N  1.0000  0.66065  0.73743  0.13828  0.0000
N4  N  1.0000  0.39572  0.39334  0.14307  0.0000
N5  N  1.0000  0.26912  0.52845  0.15045  0.0000
N6  N  1.0000  0.47737  0.74597  0.13613  0.0000
Hf1  Hf  1.0000  0.47506  0.58313  0.16744  0.0000
Zn1  Zn  1.0000  0.65194  0.54392  0.22493  0.0000
