data_CNHgMo
_audit_creation_method           'pos2cif.pl'
_cell_length_a               12.3170003891
_cell_length_b               12.3170003891315
_cell_length_c               20
_cell_angle_alpha            90
_cell_angle_beta             90
_cell_angle_gamma            120.010002136348
_symmetry_space_group_H-M        'P1'
_symmetry_Int_Tables_number      '1'
_symmetry_cell_setting           'triclinic'
loop_
_symmetry_equiv_pos_as_xyz
x,y,z

loop_
_atom_site_label
_atom_site_type_symbol
_atom_site_occupancy
_atom_site_fract_x
_atom_site_fract_y
_atom_site_fract_z
_atom_site_U_iso_or_equiv
C1  C  1.0000  0.00173  0.20313  0.13877  0.0000
C2  C  1.0000  0.06875  0.13648  0.13817  0.0000
C3  C  1.0000  0.20222  0.20190  0.13760  0.0000
C4  C  1.0000  0.26328  0.12856  0.13654  0.0000
C5  C  1.0000  0.39428  0.18989  0.13553  0.0000
C6  C  1.0000  0.46442  0.12738  0.13555  0.0000
C7  C  1.0000  0.59768  0.19789  0.13638  0.0000
C8  C  1.0000  0.66715  0.13498  0.13679  0.0000
C9  C  1.0000  0.80011  0.20404  0.13829  0.0000
C10  C  1.0000  0.86882  0.13856  0.13826  0.0000
C11  C  1.0000  0.99806  0.40116  0.14139  0.0000
C12  C  1.0000  0.06717  0.33518  0.14015  0.0000
C13  C  1.0000  0.20228  0.40455  0.14077  0.0000
C14  C  1.0000  0.27349  0.33622  0.13907  0.0000
C15  C  1.0000  0.45737  0.31985  0.13729  0.0000
C16  C  1.0000  0.65909  0.33032  0.13921  0.0000
C17  C  1.0000  0.79376  0.40359  0.14195  0.0000
C18  C  1.0000  0.86344  0.33732  0.14050  0.0000
C19  C  1.0000  -0.00338  0.60063  0.14334  0.0000
C20  C  1.0000  0.06419  0.53322  0.14262  0.0000
C21  C  1.0000  0.19983  0.59402  0.14272  0.0000
C22  C  1.0000  0.86119  0.53905  0.14442  0.0000
C23  C  1.0000  0.00111  0.80129  0.14150  0.0000
C24  C  1.0000  0.06778  0.73325  0.14226  0.0000
C25  C  1.0000  0.20284  0.79583  0.14093  0.0000
C26  C  1.0000  0.27187  0.72923  0.14201  0.0000
C27  C  1.0000  0.40903  0.79752  0.14102  0.0000
C28  C  1.0000  0.60450  0.80682  0.14147  0.0000
C29  C  1.0000  0.80197  0.80709  0.14242  0.0000
C30  C  1.0000  0.86818  0.73735  0.14359  0.0000
C31  C  1.0000  0.00322  0.00338  0.13878  0.0000
C32  C  1.0000  0.06703  0.93371  0.13924  0.0000
C33  C  1.0000  0.19905  0.99616  0.13776  0.0000
C34  C  1.0000  0.26670  0.92933  0.13835  0.0000
C35  C  1.0000  0.39970  -0.00483  0.13676  0.0000
C36  C  1.0000  0.46893  0.93108  0.13788  0.0000
C37  C  1.0000  0.60206  0.00203  0.13713  0.0000
C38  C  1.0000  0.67168  0.93948  0.13838  0.0000
C39  C  1.0000  0.80393  0.00624  0.13845  0.0000
C40  C  1.0000  0.87025  0.93879  0.13968  0.0000
N1  N  1.0000  0.58567  0.38447  0.14044  0.0000
N2  N  1.0000  0.79959  0.60836  0.14669  0.0000
N3  N  1.0000  0.67204  0.74367  0.14450  0.0000
N4  N  1.0000  0.40312  0.39371  0.13936  0.0000
N5  N  1.0000  0.26226  0.52962  0.14256  0.0000
N6  N  1.0000  0.47925  0.73967  0.14339  0.0000
Hg1  Hg  1.0000  0.46566  0.57617  0.27852  0.0000
Mo1  Mo  1.0000  0.60468  0.55383  0.15353  0.0000
