data_CNHgNb
_audit_creation_method           'pos2cif.pl'
_cell_length_a               12.3170003891
_cell_length_b               12.3170003891315
_cell_length_c               20
_cell_angle_alpha            90
_cell_angle_beta             90
_cell_angle_gamma            120.010002136348
_symmetry_space_group_H-M        'P1'
_symmetry_Int_Tables_number      '1'
_symmetry_cell_setting           'triclinic'
loop_
_symmetry_equiv_pos_as_xyz
x,y,z

loop_
_atom_site_label
_atom_site_type_symbol
_atom_site_occupancy
_atom_site_fract_x
_atom_site_fract_y
_atom_site_fract_z
_atom_site_U_iso_or_equiv
C1  C  1.0000  0.00216  0.20314  0.13870  0.0000
C2  C  1.0000  0.06904  0.13626  0.13867  0.0000
C3  C  1.0000  0.20209  0.20131  0.13804  0.0000
C4  C  1.0000  0.26410  0.12870  0.13819  0.0000
C5  C  1.0000  0.39556  0.19065  0.13715  0.0000
C6  C  1.0000  0.46520  0.12763  0.13746  0.0000
C7  C  1.0000  0.59829  0.19938  0.13719  0.0000
C8  C  1.0000  0.66755  0.13569  0.13797  0.0000
C9  C  1.0000  0.80047  0.20440  0.13847  0.0000
C10  C  1.0000  0.86928  0.13875  0.13848  0.0000
C11  C  1.0000  -0.00185  0.40128  0.14053  0.0000
C12  C  1.0000  0.06706  0.33499  0.13948  0.0000
C13  C  1.0000  0.20181  0.40376  0.13954  0.0000
C14  C  1.0000  0.27124  0.33483  0.13771  0.0000
C15  C  1.0000  0.45878  0.32062  0.13538  0.0000
C16  C  1.0000  0.65978  0.33233  0.13750  0.0000
C17  C  1.0000  0.79420  0.40446  0.14043  0.0000
C18  C  1.0000  0.86364  0.33770  0.13979  0.0000
C19  C  1.0000  -0.00357  0.60060  0.14277  0.0000
C20  C  1.0000  0.06436  0.53316  0.14175  0.0000
C21  C  1.0000  0.20015  0.59364  0.14211  0.0000
C22  C  1.0000  0.86070  0.53943  0.14323  0.0000
C23  C  1.0000  0.00165  0.80093  0.14216  0.0000
C24  C  1.0000  0.06849  0.73323  0.14281  0.0000
C25  C  1.0000  0.20367  0.79573  0.14223  0.0000
C26  C  1.0000  0.27277  0.72869  0.14270  0.0000
C27  C  1.0000  0.40981  0.79630  0.14221  0.0000
C28  C  1.0000  0.60709  0.80814  0.14185  0.0000
C29  C  1.0000  0.80477  0.80773  0.14248  0.0000
C30  C  1.0000  0.86809  0.73648  0.14359  0.0000
C31  C  1.0000  0.00407  0.00340  0.13962  0.0000
C32  C  1.0000  0.06764  0.93347  0.14050  0.0000
C33  C  1.0000  0.20000  0.99640  0.13970  0.0000
C34  C  1.0000  0.26762  0.92925  0.14046  0.0000
C35  C  1.0000  0.40066  0.99507  0.13907  0.0000
C36  C  1.0000  0.46978  0.93034  0.13980  0.0000
C37  C  1.0000  0.60288  0.00246  0.13878  0.0000
C38  C  1.0000  0.67301  0.94019  0.13931  0.0000
C39  C  1.0000  0.80522  0.00675  0.13896  0.0000
C40  C  1.0000  0.87157  0.93926  0.14014  0.0000
N1  N  1.0000  0.58769  0.38920  0.13571  0.0000
N2  N  1.0000  0.79685  0.60744  0.14586  0.0000
N3  N  1.0000  0.67519  0.74488  0.14377  0.0000
N4  N  1.0000  0.40118  0.39271  0.13579  0.0000
N5  N  1.0000  0.26266  0.52912  0.14131  0.0000
N6  N  1.0000  0.48182  0.73873  0.14406  0.0000
Hg1  Hg  1.0000  0.45982  0.56971  0.27777  0.0000
Nb1  Nb  1.0000  0.58302  0.55280  0.15073  0.0000
