data_CNHgNi
_audit_creation_method           'pos2cif.pl'
_cell_length_a               12.3170003891
_cell_length_b               12.3170003891315
_cell_length_c               20
_cell_angle_alpha            90
_cell_angle_beta             90
_cell_angle_gamma            120.010002136348
_symmetry_space_group_H-M        'P1'
_symmetry_Int_Tables_number      '1'
_symmetry_cell_setting           'triclinic'
loop_
_symmetry_equiv_pos_as_xyz
x,y,z

loop_
_atom_site_label
_atom_site_type_symbol
_atom_site_occupancy
_atom_site_fract_x
_atom_site_fract_y
_atom_site_fract_z
_atom_site_U_iso_or_equiv
C1  C  1.0000  -0.00035  0.20201  0.13961  0.0000
C2  C  1.0000  0.06706  0.13559  0.13958  0.0000
C3  C  1.0000  0.20091  0.20174  0.13918  0.0000
C4  C  1.0000  0.26402  0.13060  0.13938  0.0000
C5  C  1.0000  0.39552  0.19403  0.13931  0.0000
C6  C  1.0000  0.46422  0.12973  0.13996  0.0000
C7  C  1.0000  0.59703  0.20030  0.14023  0.0000
C8  C  1.0000  0.66575  0.13523  0.14006  0.0000
C9  C  1.0000  0.79860  0.20349  0.14009  0.0000
C10  C  1.0000  0.86675  0.13722  0.13980  0.0000
C11  C  1.0000  0.99650  0.40078  0.14071  0.0000
C12  C  1.0000  0.06514  0.33448  0.13976  0.0000
C13  C  1.0000  0.20024  0.40418  0.13952  0.0000
C14  C  1.0000  0.27252  0.33627  0.13849  0.0000
C15  C  1.0000  0.45838  0.32602  0.13858  0.0000
C16  C  1.0000  0.65798  0.33469  0.14060  0.0000
C17  C  1.0000  0.79302  0.40433  0.14140  0.0000
C18  C  1.0000  0.86180  0.33710  0.14080  0.0000
C19  C  1.0000  -0.00305  0.60114  0.14185  0.0000
C20  C  1.0000  0.06344  0.53308  0.14130  0.0000
C21  C  1.0000  0.19879  0.59390  0.14138  0.0000
C22  C  1.0000  0.86134  0.53945  0.14214  0.0000
C23  C  1.0000  0.00147  0.80153  0.14132  0.0000
C24  C  1.0000  0.06805  0.73357  0.14164  0.0000
C25  C  1.0000  0.20322  0.79648  0.14121  0.0000
C26  C  1.0000  0.27135  0.72921  0.14145  0.0000
C27  C  1.0000  0.40881  0.79704  0.14103  0.0000
C28  C  1.0000  0.60265  0.80083  0.14060  0.0000
C29  C  1.0000  0.79929  0.80379  0.14115  0.0000
C30  C  1.0000  0.86841  0.73668  0.14180  0.0000
C31  C  1.0000  0.00162  0.00234  0.14014  0.0000
C32  C  1.0000  0.06715  0.93422  0.14052  0.0000
C33  C  1.0000  0.19946  0.99740  0.14012  0.0000
C34  C  1.0000  0.26693  0.93040  0.14049  0.0000
C35  C  1.0000  0.39984  0.99663  0.14021  0.0000
C36  C  1.0000  0.46843  0.93133  0.14030  0.0000
C37  C  1.0000  0.60129  0.00105  0.14000  0.0000
C38  C  1.0000  0.66976  0.93584  0.14000  0.0000
C39  C  1.0000  0.80187  0.00403  0.13994  0.0000
C40  C  1.0000  0.86804  0.93657  0.14040  0.0000
N1  N  1.0000  0.58721  0.39293  0.13987  0.0000
N2  N  1.0000  0.80117  0.60880  0.14281  0.0000
N3  N  1.0000  0.67017  0.73563  0.14099  0.0000
N4  N  1.0000  0.40094  0.39576  0.13726  0.0000
N5  N  1.0000  0.26056  0.52890  0.14098  0.0000
N6  N  1.0000  0.47712  0.73728  0.14149  0.0000
Hg1  Hg  1.0000  0.48011  0.56879  0.26889  0.0000
Ni1  Ni  1.0000  0.62649  0.55874  0.14359  0.0000
