data_CNHgPd
_audit_creation_method           'pos2cif.pl'
_cell_length_a               12.3170003891
_cell_length_b               12.3170003891315
_cell_length_c               20
_cell_angle_alpha            90
_cell_angle_beta             90
_cell_angle_gamma            120.010002136348
_symmetry_space_group_H-M        'P1'
_symmetry_Int_Tables_number      '1'
_symmetry_cell_setting           'triclinic'
loop_
_symmetry_equiv_pos_as_xyz
x,y,z

loop_
_atom_site_label
_atom_site_type_symbol
_atom_site_occupancy
_atom_site_fract_x
_atom_site_fract_y
_atom_site_fract_z
_atom_site_U_iso_or_equiv
C1  C  1.0000  0.00095  0.20271  0.14001  0.0000
C2  C  1.0000  0.06835  0.13639  0.14007  0.0000
C3  C  1.0000  0.20216  0.20233  0.13940  0.0000
C4  C  1.0000  0.26375  0.12942  0.13985  0.0000
C5  C  1.0000  0.39470  0.19121  0.13918  0.0000
C6  C  1.0000  0.46445  0.12825  0.14016  0.0000
C7  C  1.0000  0.59753  0.19881  0.14003  0.0000
C8  C  1.0000  0.66669  0.13498  0.14077  0.0000
C9  C  1.0000  0.79966  0.20385  0.14055  0.0000
C10  C  1.0000  0.86802  0.13795  0.14056  0.0000
C11  C  1.0000  -0.00249  0.40099  0.14015  0.0000
C12  C  1.0000  0.06638  0.33486  0.13966  0.0000
C13  C  1.0000  0.20169  0.40451  0.13908  0.0000
C14  C  1.0000  0.27374  0.33677  0.13818  0.0000
C15  C  1.0000  0.45726  0.32197  0.13759  0.0000
C16  C  1.0000  0.65875  0.33223  0.13936  0.0000
C17  C  1.0000  0.79352  0.40395  0.14005  0.0000
C18  C  1.0000  0.86285  0.33720  0.14027  0.0000
C19  C  1.0000  -0.00268  0.60109  0.14081  0.0000
C20  C  1.0000  0.06401  0.53318  0.14049  0.0000
C21  C  1.0000  0.19951  0.59401  0.14077  0.0000
C22  C  1.0000  0.86146  0.53924  0.14049  0.0000
C23  C  1.0000  0.00217  0.80202  0.14123  0.0000
C24  C  1.0000  0.06830  0.73349  0.14127  0.0000
C25  C  1.0000  0.20345  0.79621  0.14152  0.0000
C26  C  1.0000  0.27188  0.72917  0.14155  0.0000
C27  C  1.0000  0.40923  0.79717  0.14173  0.0000
C28  C  1.0000  0.60354  0.80333  0.14145  0.0000
C29  C  1.0000  0.80096  0.80576  0.14122  0.0000
C30  C  1.0000  0.86914  0.73812  0.14104  0.0000
C31  C  1.0000  0.00294  0.00327  0.14076  0.0000
C32  C  1.0000  0.06757  0.93424  0.14111  0.0000
C33  C  1.0000  0.19961  0.99684  0.14093  0.0000
C34  C  1.0000  0.26707  0.92987  0.14130  0.0000
C35  C  1.0000  0.40000  0.99572  0.14111  0.0000
C36  C  1.0000  0.46882  0.93097  0.14142  0.0000
C37  C  1.0000  0.60196  0.00144  0.14130  0.0000
C38  C  1.0000  0.67092  0.93750  0.14131  0.0000
C39  C  1.0000  0.80315  0.00526  0.14097  0.0000
C40  C  1.0000  0.86963  0.93810  0.14102  0.0000
N1  N  1.0000  0.58511  0.38611  0.13806  0.0000
N2  N  1.0000  0.80297  0.61011  0.14075  0.0000
N3  N  1.0000  0.67166  0.74029  0.14131  0.0000
N4  N  1.0000  0.40301  0.39482  0.13649  0.0000
N5  N  1.0000  0.26158  0.52932  0.14011  0.0000
N6  N  1.0000  0.47817  0.73803  0.14205  0.0000
Hg1  Hg  1.0000  0.45442  0.57208  0.27279  0.0000
Pd1  Pd  1.0000  0.61950  0.55601  0.14068  0.0000
