data_CNHgPt
_audit_creation_method           'pos2cif.pl'
_cell_length_a               12.3170003891
_cell_length_b               12.3170003891315
_cell_length_c               20
_cell_angle_alpha            90
_cell_angle_beta             90
_cell_angle_gamma            120.010002136348
_symmetry_space_group_H-M        'P1'
_symmetry_Int_Tables_number      '1'
_symmetry_cell_setting           'triclinic'
loop_
_symmetry_equiv_pos_as_xyz
x,y,z

loop_
_atom_site_label
_atom_site_type_symbol
_atom_site_occupancy
_atom_site_fract_x
_atom_site_fract_y
_atom_site_fract_z
_atom_site_U_iso_or_equiv
C1  C  1.0000  0.00109  0.20314  0.13991  0.0000
C2  C  1.0000  0.06878  0.13714  0.14009  0.0000
C3  C  1.0000  0.20271  0.20309  0.13937  0.0000
C4  C  1.0000  0.26357  0.12936  0.13957  0.0000
C5  C  1.0000  0.39431  0.19035  0.13891  0.0000
C6  C  1.0000  0.46418  0.12754  0.13956  0.0000
C7  C  1.0000  0.59720  0.19800  0.13957  0.0000
C8  C  1.0000  0.66646  0.13440  0.13993  0.0000
C9  C  1.0000  0.79948  0.20386  0.13994  0.0000
C10  C  1.0000  0.86806  0.13824  0.14014  0.0000
C11  C  1.0000  -0.00275  0.40117  0.14007  0.0000
C12  C  1.0000  0.06646  0.33523  0.13966  0.0000
C13  C  1.0000  0.20194  0.40505  0.13942  0.0000
C14  C  1.0000  0.27445  0.33777  0.13852  0.0000
C15  C  1.0000  0.45673  0.32049  0.13816  0.0000
C16  C  1.0000  0.65834  0.33116  0.13967  0.0000
C17  C  1.0000  0.79297  0.40400  0.14018  0.0000
C18  C  1.0000  0.86254  0.33732  0.13997  0.0000
C19  C  1.0000  -0.00351  0.60120  0.14108  0.0000
C20  C  1.0000  0.06339  0.53333  0.14073  0.0000
C21  C  1.0000  0.19897  0.59411  0.14116  0.0000
C22  C  1.0000  0.86058  0.53933  0.14085  0.0000
C23  C  1.0000  0.00239  0.80255  0.14140  0.0000
C24  C  1.0000  0.06802  0.73361  0.14144  0.0000
C25  C  1.0000  0.20316  0.79615  0.14149  0.0000
C26  C  1.0000  0.27158  0.72911  0.14167  0.0000
C27  C  1.0000  0.40901  0.79665  0.14149  0.0000
C28  C  1.0000  0.60339  0.80290  0.14107  0.0000
C29  C  1.0000  0.80156  0.80677  0.14132  0.0000
C30  C  1.0000  0.86975  0.73940  0.14138  0.0000
C31  C  1.0000  0.00325  0.00394  0.14082  0.0000
C32  C  1.0000  0.06766  0.93468  0.14112  0.0000
C33  C  1.0000  0.19954  0.99695  0.14065  0.0000
C34  C  1.0000  0.26685  0.92975  0.14092  0.0000
C35  C  1.0000  0.39974  0.99512  0.14038  0.0000
C36  C  1.0000  0.46862  0.93039  0.14068  0.0000
C37  C  1.0000  0.60178  0.00087  0.14030  0.0000
C38  C  1.0000  0.67089  0.93712  0.14053  0.0000
C39  C  1.0000  0.80318  0.00556  0.14052  0.0000
C40  C  1.0000  0.86993  0.93882  0.14101  0.0000
N1  N  1.0000  0.58427  0.38463  0.13935  0.0000
N2  N  1.0000  0.80247  0.61147  0.14119  0.0000
N3  N  1.0000  0.67201  0.73991  0.14122  0.0000
N4  N  1.0000  0.40427  0.39508  0.13739  0.0000
N5  N  1.0000  0.26137  0.52981  0.14065  0.0000
N6  N  1.0000  0.47812  0.73757  0.14193  0.0000
Hg1  Hg  1.0000  0.45809  0.57169  0.27445  0.0000
Pt1  Pt  1.0000  0.62019  0.55538  0.14115  0.0000
