data_CNHgRh
_audit_creation_method           'pos2cif.pl'
_cell_length_a               12.3170003891
_cell_length_b               12.3170003891315
_cell_length_c               20
_cell_angle_alpha            90
_cell_angle_beta             90
_cell_angle_gamma            120.010002136348
_symmetry_space_group_H-M        'P1'
_symmetry_Int_Tables_number      '1'
_symmetry_cell_setting           'triclinic'
loop_
_symmetry_equiv_pos_as_xyz
x,y,z

loop_
_atom_site_label
_atom_site_type_symbol
_atom_site_occupancy
_atom_site_fract_x
_atom_site_fract_y
_atom_site_fract_z
_atom_site_U_iso_or_equiv
C1  C  1.0000  0.00056  0.20294  0.13986  0.0000
C2  C  1.0000  0.06792  0.13644  0.13970  0.0000
C3  C  1.0000  0.20149  0.20166  0.13963  0.0000
C4  C  1.0000  0.26310  0.12915  0.13947  0.0000
C5  C  1.0000  0.39410  0.19102  0.13951  0.0000
C6  C  1.0000  0.46379  0.12780  0.13957  0.0000
C7  C  1.0000  0.59651  0.19834  0.13987  0.0000
C8  C  1.0000  0.66609  0.13497  0.13959  0.0000
C9  C  1.0000  0.79898  0.20405  0.13998  0.0000
C10  C  1.0000  0.86771  0.13854  0.13968  0.0000
C11  C  1.0000  -0.00304  0.40131  0.14076  0.0000
C12  C  1.0000  0.06607  0.33532  0.14026  0.0000
C13  C  1.0000  0.20117  0.40486  0.14025  0.0000
C14  C  1.0000  0.27374  0.33653  0.13973  0.0000
C15  C  1.0000  0.45656  0.32150  0.14002  0.0000
C16  C  1.0000  0.65744  0.33189  0.14113  0.0000
C17  C  1.0000  0.79284  0.40430  0.14154  0.0000
C18  C  1.0000  0.86203  0.33773  0.14080  0.0000
C19  C  1.0000  -0.00374  0.60114  0.14122  0.0000
C20  C  1.0000  0.06349  0.53330  0.14100  0.0000
C21  C  1.0000  0.19879  0.59395  0.14095  0.0000
C22  C  1.0000  0.86090  0.53975  0.14173  0.0000
C23  C  1.0000  0.00136  0.80160  0.14044  0.0000
C24  C  1.0000  0.06779  0.73343  0.14076  0.0000
C25  C  1.0000  0.20295  0.79583  0.14044  0.0000
C26  C  1.0000  0.27134  0.72893  0.14073  0.0000
C27  C  1.0000  0.40915  0.79666  0.14038  0.0000
C28  C  1.0000  0.60398  0.80361  0.14017  0.0000
C29  C  1.0000  0.80043  0.80628  0.14041  0.0000
C30  C  1.0000  0.86889  0.73804  0.14084  0.0000
C31  C  1.0000  0.00241  0.00328  0.13974  0.0000
C32  C  1.0000  0.06700  0.93425  0.13994  0.0000
C33  C  1.0000  0.19886  0.99631  0.13972  0.0000
C34  C  1.0000  0.26656  0.92949  0.13990  0.0000
C35  C  1.0000  0.39945  0.99525  0.13957  0.0000
C36  C  1.0000  0.46872  0.93093  0.13958  0.0000
C37  C  1.0000  0.60149  0.00130  0.13933  0.0000
C38  C  1.0000  0.67071  0.93756  0.13938  0.0000
C39  C  1.0000  0.80280  0.00555  0.13947  0.0000
C40  C  1.0000  0.86917  0.93854  0.13976  0.0000
N1  N  1.0000  0.58483  0.38687  0.14198  0.0000
N2  N  1.0000  0.80043  0.61019  0.14173  0.0000
N3  N  1.0000  0.67165  0.73975  0.14095  0.0000
N4  N  1.0000  0.40185  0.39444  0.13957  0.0000
N5  N  1.0000  0.26115  0.52934  0.14089  0.0000
N6  N  1.0000  0.47816  0.73803  0.14099  0.0000
Hg1  Hg  1.0000  0.47937  0.57388  0.27461  0.0000
Rh1  Rh  1.0000  0.62004  0.55529  0.14444  0.0000
