data_CNHgRu
_audit_creation_method           'pos2cif.pl'
_cell_length_a               12.3170003891
_cell_length_b               12.3170003891315
_cell_length_c               20
_cell_angle_alpha            90
_cell_angle_beta             90
_cell_angle_gamma            120.010002136348
_symmetry_space_group_H-M        'P1'
_symmetry_Int_Tables_number      '1'
_symmetry_cell_setting           'triclinic'
loop_
_symmetry_equiv_pos_as_xyz
x,y,z

loop_
_atom_site_label
_atom_site_type_symbol
_atom_site_occupancy
_atom_site_fract_x
_atom_site_fract_y
_atom_site_fract_z
_atom_site_U_iso_or_equiv
C1  C  1.0000  -0.00031  0.20325  0.13917  0.0000
C2  C  1.0000  0.06691  0.13667  0.13862  0.0000
C3  C  1.0000  0.20028  0.20169  0.13797  0.0000
C4  C  1.0000  0.26173  0.12881  0.13759  0.0000
C5  C  1.0000  0.39254  0.19011  0.13727  0.0000
C6  C  1.0000  0.46268  0.12742  0.13818  0.0000
C7  C  1.0000  0.59564  0.19818  0.13904  0.0000
C8  C  1.0000  0.66520  0.13502  0.13932  0.0000
C9  C  1.0000  0.79812  0.20437  0.13977  0.0000
C10  C  1.0000  0.86684  0.13886  0.13927  0.0000
C11  C  1.0000  0.99604  0.40149  0.14104  0.0000
C12  C  1.0000  0.06511  0.33548  0.13988  0.0000
C13  C  1.0000  0.20021  0.40483  0.13965  0.0000
C14  C  1.0000  0.27187  0.33614  0.13823  0.0000
C15  C  1.0000  0.45446  0.32006  0.13799  0.0000
C16  C  1.0000  0.65658  0.33114  0.14062  0.0000
C17  C  1.0000  0.79167  0.40435  0.14194  0.0000
C18  C  1.0000  0.86121  0.33785  0.14094  0.0000
C19  C  1.0000  -0.00459  0.60127  0.14249  0.0000
C20  C  1.0000  0.06264  0.53352  0.14192  0.0000
C21  C  1.0000  0.19813  0.59413  0.14192  0.0000
C22  C  1.0000  0.86004  0.53989  0.14302  0.0000
C23  C  1.0000  0.00089  0.80226  0.14102  0.0000
C24  C  1.0000  0.06699  0.73364  0.14188  0.0000
C25  C  1.0000  0.20200  0.79590  0.14141  0.0000
C26  C  1.0000  0.27059  0.72907  0.14224  0.0000
C27  C  1.0000  0.40824  0.79692  0.14199  0.0000
C28  C  1.0000  0.60333  0.80477  0.14136  0.0000
C29  C  1.0000  0.80057  0.80753  0.14091  0.0000
C30  C  1.0000  0.86868  0.73930  0.14184  0.0000
C31  C  1.0000  0.00175  0.00377  0.13911  0.0000
C32  C  1.0000  0.06618  0.93454  0.13956  0.0000
C33  C  1.0000  0.19787  -0.00368  0.13882  0.0000
C34  C  1.0000  0.26553  0.92946  0.13971  0.0000
C35  C  1.0000  0.39845  0.99518  0.13908  0.0000
C36  C  1.0000  0.46772  0.93084  0.14003  0.0000
C37  C  1.0000  0.60060  0.00159  0.13950  0.0000
C38  C  1.0000  0.66999  0.93831  0.13966  0.0000
C39  C  1.0000  0.80217  0.00625  0.13923  0.0000
C40  C  1.0000  0.86879  0.93941  0.13959  0.0000
N1  N  1.0000  0.58296  0.38565  0.14133  0.0000
N2  N  1.0000  0.79980  0.61100  0.14384  0.0000
N3  N  1.0000  0.67140  0.74138  0.14181  0.0000
N4  N  1.0000  0.40029  0.39338  0.13791  0.0000
N5  N  1.0000  0.26045  0.52949  0.14097  0.0000
N6  N  1.0000  0.47769  0.73850  0.14348  0.0000
Hg1  Hg  1.0000  0.52315  0.56702  0.27500  0.0000
Ru1  Ru  1.0000  0.61794  0.55515  0.14487  0.0000
