data_CNHgSc
_audit_creation_method           'pos2cif.pl'
_cell_length_a               12.3170003891
_cell_length_b               12.3170003891315
_cell_length_c               20
_cell_angle_alpha            90
_cell_angle_beta             90
_cell_angle_gamma            120.010002136348
_symmetry_space_group_H-M        'P1'
_symmetry_Int_Tables_number      '1'
_symmetry_cell_setting           'triclinic'
loop_
_symmetry_equiv_pos_as_xyz
x,y,z

loop_
_atom_site_label
_atom_site_type_symbol
_atom_site_occupancy
_atom_site_fract_x
_atom_site_fract_y
_atom_site_fract_z
_atom_site_U_iso_or_equiv
C1  C  1.0000  0.00225  0.20234  0.13900  0.0000
C2  C  1.0000  0.06901  0.13553  0.13866  0.0000
C3  C  1.0000  0.20228  0.20133  0.13892  0.0000
C4  C  1.0000  0.26470  0.12903  0.13827  0.0000
C5  C  1.0000  0.39615  0.19144  0.13822  0.0000
C6  C  1.0000  0.46570  0.12848  0.13824  0.0000
C7  C  1.0000  0.59904  0.19935  0.13874  0.0000
C8  C  1.0000  0.66798  0.13537  0.13845  0.0000
C9  C  1.0000  0.80082  0.20364  0.13911  0.0000
C10  C  1.0000  0.86923  0.13755  0.13825  0.0000
C11  C  1.0000  -0.00138  0.40066  0.14184  0.0000
C12  C  1.0000  0.06738  0.33426  0.14082  0.0000
C13  C  1.0000  0.20214  0.40303  0.14262  0.0000
C14  C  1.0000  0.27161  0.33474  0.14047  0.0000
C15  C  1.0000  0.46010  0.32240  0.13878  0.0000
C16  C  1.0000  0.66052  0.33208  0.14014  0.0000
C17  C  1.0000  0.79490  0.40383  0.14211  0.0000
C18  C  1.0000  0.86429  0.33693  0.14110  0.0000
C19  C  1.0000  -0.00225  0.60043  0.14274  0.0000
C20  C  1.0000  0.06515  0.53284  0.14270  0.0000
C21  C  1.0000  0.20074  0.59357  0.14414  0.0000
C22  C  1.0000  0.86216  0.53924  0.14372  0.0000
C23  C  1.0000  0.00184  0.80070  0.14062  0.0000
C24  C  1.0000  0.06887  0.73315  0.14196  0.0000
C25  C  1.0000  0.20385  0.79596  0.14148  0.0000
C26  C  1.0000  0.27283  0.72894  0.14263  0.0000
C27  C  1.0000  0.40958  0.79719  0.14048  0.0000
C28  C  1.0000  0.60608  0.80693  0.13770  0.0000
C29  C  1.0000  0.80333  0.80556  0.13873  0.0000
C30  C  1.0000  0.86817  0.73549  0.14162  0.0000
C31  C  1.0000  0.00379  0.00244  0.13846  0.0000
C32  C  1.0000  0.06787  0.93317  0.13912  0.0000
C33  C  1.0000  0.20038  0.99666  0.13879  0.0000
C34  C  1.0000  0.26795  0.92962  0.13956  0.0000
C35  C  1.0000  0.40093  -0.00425  0.13876  0.0000
C36  C  1.0000  0.46980  0.93094  0.13883  0.0000
C37  C  1.0000  0.60298  0.00218  0.13785  0.0000
C38  C  1.0000  0.67253  0.93945  0.13709  0.0000
C39  C  1.0000  0.80483  0.00555  0.13728  0.0000
C40  C  1.0000  0.87095  0.93745  0.13787  0.0000
N1  N  1.0000  0.58847  0.38895  0.14014  0.0000
N2  N  1.0000  0.79886  0.60630  0.14554  0.0000
N3  N  1.0000  0.67270  0.74257  0.13819  0.0000
N4  N  1.0000  0.40254  0.39403  0.13972  0.0000
N5  N  1.0000  0.26303  0.52888  0.14624  0.0000
N6  N  1.0000  0.48080  0.73908  0.13997  0.0000
Hg1  Hg  1.0000  0.44512  0.58275  0.26993  0.0000
Sc1  Sc  1.0000  0.58642  0.55340  0.15634  0.0000
