data_CNHgTc
_audit_creation_method           'pos2cif.pl'
_cell_length_a               12.3170003891
_cell_length_b               12.3170003891315
_cell_length_c               20
_cell_angle_alpha            90
_cell_angle_beta             90
_cell_angle_gamma            120.010002136348
_symmetry_space_group_H-M        'P1'
_symmetry_Int_Tables_number      '1'
_symmetry_cell_setting           'triclinic'
loop_
_symmetry_equiv_pos_as_xyz
x,y,z

loop_
_atom_site_label
_atom_site_type_symbol
_atom_site_occupancy
_atom_site_fract_x
_atom_site_fract_y
_atom_site_fract_z
_atom_site_U_iso_or_equiv
C1  C  1.0000  0.00063  0.20330  0.14682  0.0000
C2  C  1.0000  0.06784  0.13692  0.14705  0.0000
C3  C  1.0000  0.20155  0.20252  0.14730  0.0000
C4  C  1.0000  0.26243  0.12891  0.14717  0.0000
C5  C  1.0000  0.39345  0.19013  0.14715  0.0000
C6  C  1.0000  0.46326  0.12719  0.14650  0.0000
C7  C  1.0000  0.59642  0.19796  0.14628  0.0000
C8  C  1.0000  0.66581  0.13487  0.14628  0.0000
C9  C  1.0000  0.79885  0.20405  0.14622  0.0000
C10  C  1.0000  0.86766  0.13867  0.14668  0.0000
C11  C  1.0000  -0.00313  0.40130  0.14575  0.0000
C12  C  1.0000  0.06611  0.33546  0.14646  0.0000
C13  C  1.0000  0.20137  0.40502  0.14666  0.0000
C14  C  1.0000  0.27292  0.33688  0.14752  0.0000
C15  C  1.0000  0.45624  0.32008  0.14742  0.0000
C16  C  1.0000  0.65807  0.33054  0.14568  0.0000
C17  C  1.0000  0.79249  0.40364  0.14515  0.0000
C18  C  1.0000  0.86215  0.33728  0.14564  0.0000
C19  C  1.0000  -0.00500  0.60070  0.14509  0.0000
C20  C  1.0000  0.06274  0.53333  0.14536  0.0000
C21  C  1.0000  0.19836  0.59411  0.14531  0.0000
C22  C  1.0000  0.85947  0.53886  0.14484  0.0000
C23  C  1.0000  -0.00017  0.80132  0.14584  0.0000
C24  C  1.0000  0.06647  0.73318  0.14528  0.0000
C25  C  1.0000  0.20166  0.79571  0.14530  0.0000
C26  C  1.0000  0.27051  0.72901  0.14502  0.0000
C27  C  1.0000  0.40796  0.79690  0.14512  0.0000
C28  C  1.0000  0.60348  0.80606  0.14594  0.0000
C29  C  1.0000  0.80078  0.80711  0.14636  0.0000
C30  C  1.0000  0.86674  0.73759  0.14569  0.0000
C31  C  1.0000  0.00216  0.00376  0.14684  0.0000
C32  C  1.0000  0.06580  0.93379  0.14643  0.0000
C33  C  1.0000  0.19794  0.99627  0.14649  0.0000
C34  C  1.0000  0.26548  0.92933  0.14591  0.0000
C35  C  1.0000  0.39859  -0.00492  0.14609  0.0000
C36  C  1.0000  0.46777  0.93065  0.14585  0.0000
C37  C  1.0000  0.60083  0.00169  0.14625  0.0000
C38  C  1.0000  0.67051  0.93901  0.14656  0.0000
C39  C  1.0000  0.80287  0.00635  0.14687  0.0000
C40  C  1.0000  0.86923  0.93922  0.14681  0.0000
N1  N  1.0000  0.58504  0.38563  0.14543  0.0000
N2  N  1.0000  0.79735  0.60837  0.14463  0.0000
N3  N  1.0000  0.67132  0.74291  0.14606  0.0000
N4  N  1.0000  0.40286  0.39419  0.14817  0.0000
N5  N  1.0000  0.26109  0.52990  0.14577  0.0000
N6  N  1.0000  0.47802  0.73871  0.14458  0.0000
Hg1  Hg  1.0000  0.51571  0.57369  0.00664  0.0000
Tc1  Tc  1.0000  0.60735  0.55400  0.14372  0.0000
