data_CNHgTi
_audit_creation_method           'pos2cif.pl'
_cell_length_a               12.3170003891
_cell_length_b               12.3170003891315
_cell_length_c               20
_cell_angle_alpha            90
_cell_angle_beta             90
_cell_angle_gamma            120.010002136348
_symmetry_space_group_H-M        'P1'
_symmetry_Int_Tables_number      '1'
_symmetry_cell_setting           'triclinic'
loop_
_symmetry_equiv_pos_as_xyz
x,y,z

loop_
_atom_site_label
_atom_site_type_symbol
_atom_site_occupancy
_atom_site_fract_x
_atom_site_fract_y
_atom_site_fract_z
_atom_site_U_iso_or_equiv
C1  C  1.0000  0.00174  0.20253  0.13969  0.0000
C2  C  1.0000  0.06878  0.13595  0.13948  0.0000
C3  C  1.0000  0.20245  0.20220  0.13902  0.0000
C4  C  1.0000  0.26456  0.12971  0.13891  0.0000
C5  C  1.0000  0.39605  0.19223  0.13824  0.0000
C6  C  1.0000  0.46524  0.12878  0.13837  0.0000
C7  C  1.0000  0.59858  0.19970  0.13832  0.0000
C8  C  1.0000  0.66740  0.13541  0.13893  0.0000
C9  C  1.0000  0.80025  0.20374  0.13935  0.0000
C10  C  1.0000  0.86865  0.13755  0.13944  0.0000
C11  C  1.0000  -0.00196  0.40089  0.14104  0.0000
C12  C  1.0000  0.06694  0.33460  0.14037  0.0000
C13  C  1.0000  0.20199  0.40402  0.14057  0.0000
C14  C  1.0000  0.27251  0.33614  0.13893  0.0000
C15  C  1.0000  0.46006  0.32331  0.13683  0.0000
C16  C  1.0000  0.66022  0.33273  0.13824  0.0000
C17  C  1.0000  0.79433  0.40399  0.14057  0.0000
C18  C  1.0000  0.86364  0.33706  0.14034  0.0000
C19  C  1.0000  -0.00343  0.60054  0.14217  0.0000
C20  C  1.0000  0.06417  0.53299  0.14175  0.0000
C21  C  1.0000  0.19986  0.59382  0.14216  0.0000
C22  C  1.0000  0.86094  0.53925  0.14255  0.0000
C23  C  1.0000  0.00102  0.80068  0.14146  0.0000
C24  C  1.0000  0.06810  0.73328  0.14195  0.0000
C25  C  1.0000  0.20326  0.79618  0.14144  0.0000
C26  C  1.0000  0.27209  0.72912  0.14195  0.0000
C27  C  1.0000  0.40907  0.79720  0.14123  0.0000
C28  C  1.0000  0.60487  0.80547  0.14066  0.0000
C29  C  1.0000  0.80216  0.80504  0.14145  0.0000
C30  C  1.0000  0.86721  0.73538  0.14259  0.0000
C31  C  1.0000  0.00314  0.00263  0.13993  0.0000
C32  C  1.0000  0.06729  0.93341  0.14031  0.0000
C33  C  1.0000  0.19988  -0.00302  0.13975  0.0000
C34  C  1.0000  0.26742  0.92996  0.14019  0.0000
C35  C  1.0000  0.40051  -0.00387  0.13935  0.0000
C36  C  1.0000  0.46933  0.93107  0.13979  0.0000
C37  C  1.0000  0.60242  0.00184  0.13926  0.0000
C38  C  1.0000  0.67176  0.93850  0.13953  0.0000
C39  C  1.0000  0.80407  0.00532  0.13957  0.0000
C40  C  1.0000  0.86996  0.93718  0.14025  0.0000
N1  N  1.0000  0.58888  0.39066  0.13613  0.0000
N2  N  1.0000  0.79702  0.60621  0.14446  0.0000
N3  N  1.0000  0.67153  0.73998  0.14181  0.0000
N4  N  1.0000  0.40345  0.39548  0.13697  0.0000
N5  N  1.0000  0.26233  0.52941  0.14222  0.0000
N6  N  1.0000  0.47977  0.73878  0.14193  0.0000
Hg1  Hg  1.0000  0.46937  0.57669  0.27378  0.0000
Ti1  Ti  1.0000  0.58817  0.55144  0.14872  0.0000
