data_CNHgY
_audit_creation_method           'pos2cif.pl'
_cell_length_a               12.3170003891
_cell_length_b               12.3170003891315
_cell_length_c               20
_cell_angle_alpha            90
_cell_angle_beta             90
_cell_angle_gamma            120.010002136348
_symmetry_space_group_H-M        'P1'
_symmetry_Int_Tables_number      '1'
_symmetry_cell_setting           'triclinic'
loop_
_symmetry_equiv_pos_as_xyz
x,y,z

loop_
_atom_site_label
_atom_site_type_symbol
_atom_site_occupancy
_atom_site_fract_x
_atom_site_fract_y
_atom_site_fract_z
_atom_site_U_iso_or_equiv
C1  C  1.0000  0.00302  0.20212  0.13684  0.0000
C2  C  1.0000  0.06961  0.13516  0.13621  0.0000
C3  C  1.0000  0.20265  0.20071  0.13770  0.0000
C4  C  1.0000  0.26540  0.12871  0.13624  0.0000
C5  C  1.0000  0.39686  0.19130  0.13629  0.0000
C6  C  1.0000  0.46656  0.12851  0.13565  0.0000
C7  C  1.0000  0.59990  0.19968  0.13674  0.0000
C8  C  1.0000  0.66887  0.13570  0.13537  0.0000
C9  C  1.0000  0.80175  0.20371  0.13675  0.0000
C10  C  1.0000  0.87012  0.13760  0.13483  0.0000
C11  C  1.0000  -0.00057  0.40038  0.14273  0.0000
C12  C  1.0000  0.06814  0.33399  0.14088  0.0000
C13  C  1.0000  0.20252  0.40215  0.14475  0.0000
C14  C  1.0000  0.27159  0.33372  0.14189  0.0000
C15  C  1.0000  0.46054  0.32222  0.13929  0.0000
C16  C  1.0000  0.66105  0.33247  0.14073  0.0000
C17  C  1.0000  0.79569  0.40375  0.14384  0.0000
C18  C  1.0000  0.86518  0.33682  0.14118  0.0000
C19  C  1.0000  -0.00059  0.60042  0.14482  0.0000
C20  C  1.0000  0.06648  0.53273  0.14465  0.0000
C21  C  1.0000  0.20194  0.59344  0.14698  0.0000
C22  C  1.0000  0.86394  0.53916  0.14683  0.0000
C23  C  1.0000  0.00305  0.80075  0.14028  0.0000
C24  C  1.0000  0.07014  0.73320  0.14319  0.0000
C25  C  1.0000  0.20501  0.79595  0.14204  0.0000
C26  C  1.0000  0.27409  0.72895  0.14428  0.0000
C27  C  1.0000  0.41067  0.79709  0.14016  0.0000
C28  C  1.0000  0.60730  0.80756  0.13400  0.0000
C29  C  1.0000  0.80410  0.80525  0.13555  0.0000
C30  C  1.0000  0.86934  0.73539  0.14209  0.0000
C31  C  1.0000  0.00449  0.00213  0.13541  0.0000
C32  C  1.0000  0.06877  0.93293  0.13698  0.0000
C33  C  1.0000  0.20125  0.99644  0.13666  0.0000
C34  C  1.0000  0.26888  0.92947  0.13808  0.0000
C35  C  1.0000  0.40181  -0.00436  0.13624  0.0000
C36  C  1.0000  0.47066  0.93081  0.13628  0.0000
C37  C  1.0000  0.60391  0.00255  0.13409  0.0000
C38  C  1.0000  0.67345  0.93992  0.13249  0.0000
C39  C  1.0000  0.80577  0.00553  0.13261  0.0000
C40  C  1.0000  0.87191  0.93741  0.13393  0.0000
N1  N  1.0000  0.58867  0.38920  0.14241  0.0000
N2  N  1.0000  0.80161  0.60676  0.15031  0.0000
N3  N  1.0000  0.67380  0.74377  0.13304  0.0000
N4  N  1.0000  0.40223  0.39269  0.14287  0.0000
N5  N  1.0000  0.26368  0.52817  0.15063  0.0000
N6  N  1.0000  0.48210  0.73901  0.13973  0.0000
Hg1  Hg  1.0000  0.40283  0.58132  0.27979  0.0000
Y1  Y  1.0000  0.58688  0.55882  0.17757  0.0000
