data_CNHgZn
_audit_creation_method           'pos2cif.pl'
_cell_length_a               12.3170003891
_cell_length_b               12.3170003891315
_cell_length_c               20
_cell_angle_alpha            90
_cell_angle_beta             90
_cell_angle_gamma            120.010002136348
_symmetry_space_group_H-M        'P1'
_symmetry_Int_Tables_number      '1'
_symmetry_cell_setting           'triclinic'
loop_
_symmetry_equiv_pos_as_xyz
x,y,z

loop_
_atom_site_label
_atom_site_type_symbol
_atom_site_occupancy
_atom_site_fract_x
_atom_site_fract_y
_atom_site_fract_z
_atom_site_U_iso_or_equiv
C1  C  1.0000  0.00022  0.20168  0.13953  0.0000
C2  C  1.0000  0.06715  0.13480  0.13932  0.0000
C3  C  1.0000  0.20068  0.20064  0.13892  0.0000
C4  C  1.0000  0.26388  0.12941  0.13885  0.0000
C5  C  1.0000  0.39505  0.19251  0.13881  0.0000
C6  C  1.0000  0.46480  0.12954  0.13943  0.0000
C7  C  1.0000  0.59792  0.20080  0.13986  0.0000
C8  C  1.0000  0.66657  0.13589  0.13996  0.0000
C9  C  1.0000  0.79938  0.20370  0.14010  0.0000
C10  C  1.0000  0.86739  0.13711  0.13975  0.0000
C11  C  1.0000  0.99740  0.40058  0.14078  0.0000
C12  C  1.0000  0.06559  0.33390  0.13995  0.0000
C13  C  1.0000  0.20066  0.40320  0.14033  0.0000
C14  C  1.0000  0.27151  0.33458  0.13911  0.0000
C15  C  1.0000  0.45760  0.32388  0.13897  0.0000
C16  C  1.0000  0.65849  0.33471  0.14047  0.0000
C17  C  1.0000  0.79380  0.40462  0.14114  0.0000
C18  C  1.0000  0.86253  0.33714  0.14068  0.0000
C19  C  1.0000  -0.00051  0.60108  0.14158  0.0000
C20  C  1.0000  0.06545  0.53286  0.14141  0.0000
C21  C  1.0000  0.20056  0.59352  0.14198  0.0000
C22  C  1.0000  0.86442  0.54019  0.14178  0.0000
C23  C  1.0000  0.00293  0.80170  0.14091  0.0000
C24  C  1.0000  0.06943  0.73351  0.14141  0.0000
C25  C  1.0000  0.20437  0.79646  0.14126  0.0000
C26  C  1.0000  0.27250  0.72914  0.14177  0.0000
C27  C  1.0000  0.40934  0.79779  0.14112  0.0000
C28  C  1.0000  0.60332  0.80376  0.14032  0.0000
C29  C  1.0000  0.80036  0.80376  0.14048  0.0000
C30  C  1.0000  0.86972  0.73563  0.14124  0.0000
C31  C  1.0000  0.00218  0.00179  0.13979  0.0000
C32  C  1.0000  0.06789  0.93378  0.14010  0.0000
C33  C  1.0000  0.19997  0.99686  0.13964  0.0000
C34  C  1.0000  0.26769  0.93018  0.14026  0.0000
C35  C  1.0000  0.40053  0.99674  0.13990  0.0000
C36  C  1.0000  0.46904  0.93163  0.14025  0.0000
C37  C  1.0000  0.60201  0.00218  0.13998  0.0000
C38  C  1.0000  0.67067  0.93774  0.13997  0.0000
C39  C  1.0000  0.80274  0.00439  0.13981  0.0000
C40  C  1.0000  0.86874  0.93613  0.14004  0.0000
N1  N  1.0000  0.58523  0.39073  0.14036  0.0000
N2  N  1.0000  0.80503  0.60891  0.14225  0.0000
N3  N  1.0000  0.67081  0.73973  0.14028  0.0000
N4  N  1.0000  0.39997  0.39349  0.13878  0.0000
N5  N  1.0000  0.26210  0.52822  0.14226  0.0000
N6  N  1.0000  0.47839  0.73854  0.14134  0.0000
Hg1  Hg  1.0000  0.46060  0.57064  0.27084  0.0000
Zn1  Zn  1.0000  0.61094  0.56141  0.14489  0.0000
