data_CNHgZr
_audit_creation_method           'pos2cif.pl'
_cell_length_a               12.3170003891
_cell_length_b               12.3170003891315
_cell_length_c               20
_cell_angle_alpha            90
_cell_angle_beta             90
_cell_angle_gamma            120.010002136348
_symmetry_space_group_H-M        'P1'
_symmetry_Int_Tables_number      '1'
_symmetry_cell_setting           'triclinic'
loop_
_symmetry_equiv_pos_as_xyz
x,y,z

loop_
_atom_site_label
_atom_site_type_symbol
_atom_site_occupancy
_atom_site_fract_x
_atom_site_fract_y
_atom_site_fract_z
_atom_site_U_iso_or_equiv
C1  C  1.0000  0.00250  0.20244  0.13858  0.0000
C2  C  1.0000  0.06930  0.13567  0.13808  0.0000
C3  C  1.0000  0.20246  0.20130  0.13865  0.0000
C4  C  1.0000  0.26456  0.12870  0.13832  0.0000
C5  C  1.0000  0.39607  0.19104  0.13847  0.0000
C6  C  1.0000  0.46581  0.12821  0.13805  0.0000
C7  C  1.0000  0.59914  0.19957  0.13809  0.0000
C8  C  1.0000  0.66819  0.13559  0.13787  0.0000
C9  C  1.0000  0.80102  0.20383  0.13859  0.0000
C10  C  1.0000  0.86951  0.13778  0.13763  0.0000
C11  C  1.0000  -0.00130  0.40068  0.14192  0.0000
C12  C  1.0000  0.06751  0.33431  0.14079  0.0000
C13  C  1.0000  0.20220  0.40300  0.14235  0.0000
C14  C  1.0000  0.27129  0.33465  0.14028  0.0000
C15  C  1.0000  0.45967  0.32151  0.13844  0.0000
C16  C  1.0000  0.66085  0.33234  0.13911  0.0000
C17  C  1.0000  0.79500  0.40396  0.14174  0.0000
C18  C  1.0000  0.86450  0.33703  0.14082  0.0000
C19  C  1.0000  -0.00238  0.60032  0.14315  0.0000
C20  C  1.0000  0.06520  0.53284  0.14301  0.0000
C21  C  1.0000  0.20094  0.59344  0.14393  0.0000
C22  C  1.0000  0.86197  0.53903  0.14416  0.0000
C23  C  1.0000  0.00193  0.80053  0.14024  0.0000
C24  C  1.0000  0.06905  0.73310  0.14211  0.0000
C25  C  1.0000  0.20399  0.79575  0.14155  0.0000
C26  C  1.0000  0.27308  0.72871  0.14256  0.0000
C27  C  1.0000  0.40979  0.79673  0.14030  0.0000
C28  C  1.0000  0.60646  0.80764  0.13673  0.0000
C29  C  1.0000  0.80445  0.80618  0.13766  0.0000
C30  C  1.0000  0.86830  0.73578  0.14145  0.0000
C31  C  1.0000  0.00414  0.00261  0.13766  0.0000
C32  C  1.0000  0.06790  0.93297  0.13849  0.0000
C33  C  1.0000  0.20043  0.99641  0.13859  0.0000
C34  C  1.0000  0.26807  0.92941  0.13955  0.0000
C35  C  1.0000  0.40110  -0.00450  0.13865  0.0000
C36  C  1.0000  0.47005  0.93064  0.13857  0.0000
C37  C  1.0000  0.60322  0.00238  0.13735  0.0000
C38  C  1.0000  0.67293  0.93982  0.13632  0.0000
C39  C  1.0000  0.80527  0.00588  0.13636  0.0000
C40  C  1.0000  0.87151  0.93800  0.13681  0.0000
N1  N  1.0000  0.58842  0.38939  0.13830  0.0000
N2  N  1.0000  0.79819  0.60626  0.14672  0.0000
N3  N  1.0000  0.67368  0.74346  0.13677  0.0000
N4  N  1.0000  0.40256  0.39384  0.13951  0.0000
N5  N  1.0000  0.26330  0.52885  0.14539  0.0000
N6  N  1.0000  0.48151  0.73879  0.13945  0.0000
Hg1  Hg  1.0000  0.43861  0.58085  0.27983  0.0000
Zr1  Zr  1.0000  0.58506  0.55442  0.16299  0.0000
