data_CNIrMo
_audit_creation_method           'pos2cif.pl'
_cell_length_a               12.3170003891
_cell_length_b               12.3170003891315
_cell_length_c               20
_cell_angle_alpha            90
_cell_angle_beta             90
_cell_angle_gamma            120.010002136348
_symmetry_space_group_H-M        'P1'
_symmetry_Int_Tables_number      '1'
_symmetry_cell_setting           'triclinic'
loop_
_symmetry_equiv_pos_as_xyz
x,y,z

loop_
_atom_site_label
_atom_site_type_symbol
_atom_site_occupancy
_atom_site_fract_x
_atom_site_fract_y
_atom_site_fract_z
_atom_site_U_iso_or_equiv
C1  C  1.0000  0.99872  0.20019  0.13088  0.0000
C2  C  1.0000  0.06448  0.13220  0.12746  0.0000
C3  C  1.0000  0.19620  0.19468  0.12732  0.0000
C4  C  1.0000  0.26286  0.12703  0.12820  0.0000
C5  C  1.0000  0.39434  0.19263  0.13252  0.0000
C6  C  1.0000  0.46431  0.12957  0.13680  0.0000
C7  C  1.0000  0.59765  0.20158  0.14052  0.0000
C8  C  1.0000  0.66684  0.13687  0.14078  0.0000
C9  C  1.0000  0.79930  0.20486  0.13946  0.0000
C10  C  1.0000  0.86730  0.13815  0.13579  0.0000
C11  C  1.0000  0.99618  0.40035  0.14069  0.0000
C12  C  1.0000  0.06224  0.33150  0.13440  0.0000
C13  C  1.0000  0.19366  0.39406  0.13558  0.0000
C14  C  1.0000  0.26042  0.32503  0.13254  0.0000
C15  C  1.0000  0.45465  0.32349  0.13911  0.0000
C16  C  1.0000  0.65788  0.33350  0.14659  0.0000
C17  C  1.0000  0.79336  0.40570  0.14861  0.0000
C18  C  1.0000  0.86245  0.33821  0.14242  0.0000
C19  C  1.0000  -0.00111  0.60080  0.14813  0.0000
C20  C  1.0000  0.06578  0.53254  0.14462  0.0000
C21  C  1.0000  0.20136  0.59323  0.14469  0.0000
C22  C  1.0000  0.86406  0.54038  0.15280  0.0000
C23  C  1.0000  0.00407  0.80179  0.14164  0.0000
C24  C  1.0000  0.07082  0.73359  0.14433  0.0000
C25  C  1.0000  0.20470  0.79532  0.14234  0.0000
C26  C  1.0000  0.27428  0.72778  0.14629  0.0000
C27  C  1.0000  0.41067  0.79915  0.14937  0.0000
C28  C  1.0000  0.61592  0.81348  0.15774  0.0000
C29  C  1.0000  0.80877  0.81059  0.15247  0.0000
C30  C  1.0000  0.87300  0.74044  0.15054  0.0000
C31  C  1.0000  0.00231  0.00076  0.13114  0.0000
C32  C  1.0000  0.06812  0.93273  0.13300  0.0000
C33  C  1.0000  0.20019  0.99503  0.13102  0.0000
C34  C  1.0000  0.26823  0.92880  0.13687  0.0000
C35  C  1.0000  0.40112  0.99674  0.13863  0.0000
C36  C  1.0000  0.47064  0.93218  0.14463  0.0000
C37  C  1.0000  0.60342  0.00389  0.14393  0.0000
C38  C  1.0000  0.67483  0.94228  0.14767  0.0000
C39  C  1.0000  0.80589  0.00739  0.14087  0.0000
C40  C  1.0000  0.87190  0.93943  0.14011  0.0000
N1  N  1.0000  0.58301  0.38948  0.15311  0.0000
N2  N  1.0000  0.80422  0.61211  0.15942  0.0000
N3  N  1.0000  0.68211  0.74992  0.16659  0.0000
N4  N  1.0000  0.38948  0.38708  0.13870  0.0000
N5  N  1.0000  0.25877  0.52140  0.14216  0.0000
N6  N  1.0000  0.48693  0.74501  0.15636  0.0000
Ir1  Ir  1.0000  0.44479  0.57008  0.15151  0.0000
Mo1  Mo  1.0000  0.61592  0.55812  0.18157  0.0000
