data_CNIrNi
_audit_creation_method           'pos2cif.pl'
_cell_length_a               12.3170003891
_cell_length_b               12.3170003891315
_cell_length_c               20
_cell_angle_alpha            90
_cell_angle_beta             90
_cell_angle_gamma            120.010002136348
_symmetry_space_group_H-M        'P1'
_symmetry_Int_Tables_number      '1'
_symmetry_cell_setting           'triclinic'
loop_
_symmetry_equiv_pos_as_xyz
x,y,z

loop_
_atom_site_label
_atom_site_type_symbol
_atom_site_occupancy
_atom_site_fract_x
_atom_site_fract_y
_atom_site_fract_z
_atom_site_U_iso_or_equiv
C1  C  1.0000  0.99790  0.19925  0.14405  0.0000
C2  C  1.0000  0.06373  0.13115  0.14286  0.0000
C3  C  1.0000  0.19537  0.19384  0.13896  0.0000
C4  C  1.0000  0.26305  0.12762  0.13901  0.0000
C5  C  1.0000  0.39475  0.19490  0.13882  0.0000
C6  C  1.0000  0.46465  0.13169  0.14184  0.0000
C7  C  1.0000  0.59739  0.20386  0.14362  0.0000
C8  C  1.0000  0.66612  0.13792  0.14582  0.0000
C9  C  1.0000  0.79873  0.20465  0.14629  0.0000
C10  C  1.0000  0.86641  0.13740  0.14681  0.0000
C11  C  1.0000  0.99603  0.40007  0.14322  0.0000
C12  C  1.0000  0.06170  0.33096  0.14167  0.0000
C13  C  1.0000  0.19298  0.39300  0.13701  0.0000
C14  C  1.0000  0.25990  0.32412  0.13503  0.0000
C15  C  1.0000  0.45662  0.32742  0.13716  0.0000
C16  C  1.0000  0.65699  0.33838  0.14414  0.0000
C17  C  1.0000  0.79313  0.40616  0.14570  0.0000
C18  C  1.0000  0.86179  0.33818  0.14527  0.0000
C19  C  1.0000  0.00149  0.60101  0.14389  0.0000
C20  C  1.0000  0.06766  0.53245  0.14212  0.0000
C21  C  1.0000  0.20306  0.59303  0.13952  0.0000
C22  C  1.0000  0.86598  0.54076  0.14640  0.0000
C23  C  1.0000  0.00485  0.80131  0.14453  0.0000
C24  C  1.0000  0.07153  0.73319  0.14322  0.0000
C25  C  1.0000  0.20589  0.79570  0.14171  0.0000
C26  C  1.0000  0.27479  0.72810  0.14062  0.0000
C27  C  1.0000  0.41058  0.79940  0.14227  0.0000
C28  C  1.0000  0.61221  0.80869  0.14834  0.0000
C29  C  1.0000  0.80406  0.80509  0.14941  0.0000
C30  C  1.0000  0.87258  0.73709  0.14804  0.0000
C31  C  1.0000  0.00144  -0.00036  0.14472  0.0000
C32  C  1.0000  0.06858  0.93288  0.14313  0.0000
C33  C  1.0000  0.20055  0.99575  0.14109  0.0000
C34  C  1.0000  0.26881  0.92943  0.14154  0.0000
C35  C  1.0000  0.40152  0.99794  0.14255  0.0000
C36  C  1.0000  0.47046  0.93289  0.14441  0.0000
C37  C  1.0000  0.60317  0.00425  0.14661  0.0000
C38  C  1.0000  0.67307  0.94040  0.14919  0.0000
C39  C  1.0000  0.80420  0.00550  0.14882  0.0000
C40  C  1.0000  0.86959  0.93663  0.14780  0.0000
N1  N  1.0000  0.58414  0.39717  0.14286  0.0000
N2  N  1.0000  0.80687  0.61006  0.14999  0.0000
N3  N  1.0000  0.67487  0.74078  0.15142  0.0000
N4  N  1.0000  0.38867  0.38895  0.13100  0.0000
N5  N  1.0000  0.26089  0.52088  0.13544  0.0000
N6  N  1.0000  0.48482  0.74307  0.14092  0.0000
Ir1  Ir  1.0000  0.44147  0.56942  0.12940  0.0000
Ni1  Ni  1.0000  0.63201  0.56912  0.15366  0.0000
