data_CNIrOs
_audit_creation_method           'pos2cif.pl'
_cell_length_a               12.3170003891
_cell_length_b               12.3170003891315
_cell_length_c               20
_cell_angle_alpha            90
_cell_angle_beta             90
_cell_angle_gamma            120.010002136348
_symmetry_space_group_H-M        'P1'
_symmetry_Int_Tables_number      '1'
_symmetry_cell_setting           'triclinic'
loop_
_symmetry_equiv_pos_as_xyz
x,y,z

loop_
_atom_site_label
_atom_site_type_symbol
_atom_site_occupancy
_atom_site_fract_x
_atom_site_fract_y
_atom_site_fract_z
_atom_site_U_iso_or_equiv
C1  C  1.0000  0.99943  0.20102  0.14129  0.0000
C2  C  1.0000  0.06534  0.13312  0.14043  0.0000
C3  C  1.0000  0.19618  0.19423  0.14093  0.0000
C4  C  1.0000  0.26193  0.12603  0.14110  0.0000
C5  C  1.0000  0.39302  0.19079  0.14227  0.0000
C6  C  1.0000  0.46408  0.12885  0.14296  0.0000
C7  C  1.0000  0.59689  0.19995  0.14361  0.0000
C8  C  1.0000  0.66685  0.13671  0.14341  0.0000
C9  C  1.0000  0.79954  0.20536  0.14298  0.0000
C10  C  1.0000  0.86784  0.13932  0.14187  0.0000
C11  C  1.0000  0.99660  0.40084  0.14354  0.0000
C12  C  1.0000  0.06305  0.33210  0.14249  0.0000
C13  C  1.0000  0.19443  0.39350  0.14301  0.0000
C14  C  1.0000  0.26111  0.32497  0.14241  0.0000
C15  C  1.0000  0.45296  0.32073  0.14339  0.0000
C16  C  1.0000  0.65744  0.33230  0.14417  0.0000
C17  C  1.0000  0.79312  0.40601  0.14427  0.0000
C18  C  1.0000  0.86295  0.33886  0.14359  0.0000
C19  C  1.0000  -0.00106  0.60091  0.14421  0.0000
C20  C  1.0000  0.06675  0.53316  0.14420  0.0000
C21  C  1.0000  0.20267  0.59398  0.14435  0.0000
C22  C  1.0000  0.86296  0.53992  0.14444  0.0000
C23  C  1.0000  0.00434  0.80216  0.14232  0.0000
C24  C  1.0000  0.07050  0.73321  0.14336  0.0000
C25  C  1.0000  0.20429  0.79496  0.14335  0.0000
C26  C  1.0000  0.27409  0.72783  0.14423  0.0000
C27  C  1.0000  0.41037  0.80010  0.14437  0.0000
C28  C  1.0000  0.61514  0.81242  0.14418  0.0000
C29  C  1.0000  0.80744  0.81024  0.14292  0.0000
C30  C  1.0000  0.87327  0.74168  0.14316  0.0000
C31  C  1.0000  0.00294  0.00171  0.14047  0.0000
C32  C  1.0000  0.06836  0.93342  0.14096  0.0000
C33  C  1.0000  0.19989  0.99486  0.14118  0.0000
C34  C  1.0000  0.26794  0.92842  0.14245  0.0000
C35  C  1.0000  0.40060  0.99626  0.14305  0.0000
C36  C  1.0000  0.47061  0.93277  0.14380  0.0000
C37  C  1.0000  0.60348  0.00405  0.14355  0.0000
C38  C  1.0000  0.67487  0.94258  0.14322  0.0000
C39  C  1.0000  0.80596  0.00821  0.14198  0.0000
C40  C  1.0000  0.87213  0.94071  0.14148  0.0000
N1  N  1.0000  0.58263  0.38685  0.14460  0.0000
N2  N  1.0000  0.80308  0.61335  0.14447  0.0000
N3  N  1.0000  0.67910  0.74654  0.14442  0.0000
N4  N  1.0000  0.38959  0.38689  0.14365  0.0000
N5  N  1.0000  0.26145  0.52148  0.14425  0.0000
N6  N  1.0000  0.48597  0.74642  0.14492  0.0000
Ir1  Ir  1.0000  0.44402  0.57479  0.14508  0.0000
Os1  Os  1.0000  0.62089  0.55659  0.14559  0.0000
