data_CNIrPt
_audit_creation_method           'pos2cif.pl'
_cell_length_a               12.3170003891
_cell_length_b               12.3170003891315
_cell_length_c               20
_cell_angle_alpha            90
_cell_angle_beta             90
_cell_angle_gamma            120.010002136348
_symmetry_space_group_H-M        'P1'
_symmetry_Int_Tables_number      '1'
_symmetry_cell_setting           'triclinic'
loop_
_symmetry_equiv_pos_as_xyz
x,y,z

loop_
_atom_site_label
_atom_site_type_symbol
_atom_site_occupancy
_atom_site_fract_x
_atom_site_fract_y
_atom_site_fract_z
_atom_site_U_iso_or_equiv
C1  C  1.0000  0.99814  0.19975  0.14172  0.0000
C2  C  1.0000  0.06425  0.13189  0.14004  0.0000
C3  C  1.0000  0.19466  0.19322  0.13126  0.0000
C4  C  1.0000  0.26196  0.12632  0.13187  0.0000
C5  C  1.0000  0.39344  0.19256  0.13050  0.0000
C6  C  1.0000  0.46421  0.13042  0.13719  0.0000
C7  C  1.0000  0.59700  0.20249  0.14053  0.0000
C8  C  1.0000  0.66615  0.13761  0.14557  0.0000
C9  C  1.0000  0.79879  0.20491  0.14632  0.0000
C10  C  1.0000  0.86683  0.13817  0.14812  0.0000
C11  C  1.0000  0.99594  0.40016  0.14109  0.0000
C12  C  1.0000  0.06166  0.33102  0.13689  0.0000
C13  C  1.0000  0.19247  0.39260  0.12863  0.0000
C14  C  1.0000  0.25882  0.32330  0.12418  0.0000
C15  C  1.0000  0.45407  0.32432  0.12791  0.0000
C16  C  1.0000  0.65640  0.33630  0.14209  0.0000
C17  C  1.0000  0.79271  0.40620  0.14659  0.0000
C18  C  1.0000  0.86196  0.33842  0.14459  0.0000
C19  C  1.0000  0.00172  0.60106  0.14664  0.0000
C20  C  1.0000  0.06767  0.53262  0.14130  0.0000
C21  C  1.0000  0.20304  0.59339  0.13712  0.0000
C22  C  1.0000  0.86627  0.54044  0.15105  0.0000
C23  C  1.0000  0.00595  0.80237  0.15070  0.0000
C24  C  1.0000  0.07196  0.73343  0.14671  0.0000
C25  C  1.0000  0.20583  0.79546  0.14260  0.0000
C26  C  1.0000  0.27498  0.72774  0.14047  0.0000
C27  C  1.0000  0.41104  0.79889  0.14369  0.0000
C28  C  1.0000  0.61212  0.80975  0.15611  0.0000
C29  C  1.0000  0.80756  0.80915  0.16189  0.0000
C30  C  1.0000  0.87484  0.73986  0.15888  0.0000
C31  C  1.0000  0.00264  0.00108  0.14739  0.0000
C32  C  1.0000  0.06903  0.93343  0.14555  0.0000
C33  C  1.0000  0.20031  0.99524  0.13869  0.0000
C34  C  1.0000  0.26868  0.92897  0.14029  0.0000
C35  C  1.0000  0.40136  0.99707  0.14059  0.0000
C36  C  1.0000  0.47052  0.93235  0.14537  0.0000
C37  C  1.0000  0.60324  0.00429  0.14859  0.0000
C38  C  1.0000  0.67340  0.94153  0.15501  0.0000
C39  C  1.0000  0.80491  0.00691  0.15452  0.0000
C40  C  1.0000  0.87209  0.93967  0.15562  0.0000
N1  N  1.0000  0.58064  0.39138  0.13995  0.0000
N2  N  1.0000  0.80993  0.61183  0.16067  0.0000
N3  N  1.0000  0.67869  0.74738  0.16521  0.0000
N4  N  1.0000  0.38728  0.38663  0.11824  0.0000
N5  N  1.0000  0.26045  0.52119  0.12779  0.0000
N6  N  1.0000  0.48584  0.74277  0.14337  0.0000
Ir1  Ir  1.0000  0.43955  0.56924  0.12176  0.0000
Pt1  Pt  1.0000  0.62603  0.56639  0.16108  0.0000
