data_CNIrRh
_audit_creation_method           'pos2cif.pl'
_cell_length_a               12.3170003891
_cell_length_b               12.3170003891315
_cell_length_c               20
_cell_angle_alpha            90
_cell_angle_beta             90
_cell_angle_gamma            120.010002136348
_symmetry_space_group_H-M        'P1'
_symmetry_Int_Tables_number      '1'
_symmetry_cell_setting           'triclinic'
loop_
_symmetry_equiv_pos_as_xyz
x,y,z

loop_
_atom_site_label
_atom_site_type_symbol
_atom_site_occupancy
_atom_site_fract_x
_atom_site_fract_y
_atom_site_fract_z
_atom_site_U_iso_or_equiv
C1  C  1.0000  0.99862  0.20011  0.14206  0.0000
C2  C  1.0000  0.06451  0.13209  0.14011  0.0000
C3  C  1.0000  0.19576  0.19396  0.13353  0.0000
C4  C  1.0000  0.26242  0.12669  0.13346  0.0000
C5  C  1.0000  0.39405  0.19296  0.13300  0.0000
C6  C  1.0000  0.46419  0.13020  0.13856  0.0000
C7  C  1.0000  0.59694  0.20187  0.14143  0.0000
C8  C  1.0000  0.66640  0.13744  0.14549  0.0000
C9  C  1.0000  0.79911  0.20507  0.14609  0.0000
C10  C  1.0000  0.86728  0.13854  0.14718  0.0000
C11  C  1.0000  0.99645  0.40044  0.14174  0.0000
C12  C  1.0000  0.06255  0.33170  0.13878  0.0000
C13  C  1.0000  0.19385  0.39334  0.13276  0.0000
C14  C  1.0000  0.26052  0.32437  0.12867  0.0000
C15  C  1.0000  0.45561  0.32484  0.13193  0.0000
C16  C  1.0000  0.65657  0.33549  0.14319  0.0000
C17  C  1.0000  0.79273  0.40572  0.14588  0.0000
C18  C  1.0000  0.86220  0.33856  0.14453  0.0000
C19  C  1.0000  0.00046  0.60088  0.14474  0.0000
C20  C  1.0000  0.06745  0.53275  0.14128  0.0000
C21  C  1.0000  0.20342  0.59336  0.13834  0.0000
C22  C  1.0000  0.86444  0.54044  0.14808  0.0000
C23  C  1.0000  0.00443  0.80161  0.14670  0.0000
C24  C  1.0000  0.07091  0.73316  0.14413  0.0000
C25  C  1.0000  0.20524  0.79527  0.14155  0.0000
C26  C  1.0000  0.27486  0.72806  0.14069  0.0000
C27  C  1.0000  0.41074  0.79892  0.14369  0.0000
C28  C  1.0000  0.61280  0.81028  0.15518  0.0000
C29  C  1.0000  0.80594  0.80845  0.15725  0.0000
C30  C  1.0000  0.87272  0.73915  0.15316  0.0000
C31  C  1.0000  0.00231  0.00097  0.14481  0.0000
C32  C  1.0000  0.06843  0.93317  0.14307  0.0000
C33  C  1.0000  0.20001  0.99512  0.13835  0.0000
C34  C  1.0000  0.26829  0.92874  0.13995  0.0000
C35  C  1.0000  0.40105  0.99680  0.14105  0.0000
C36  C  1.0000  0.47047  0.93244  0.14533  0.0000
C37  C  1.0000  0.60328  0.00426  0.14812  0.0000
C38  C  1.0000  0.67360  0.94170  0.15354  0.0000
C39  C  1.0000  0.80500  0.00702  0.15226  0.0000
C40  C  1.0000  0.87116  0.93908  0.15177  0.0000
N1  N  1.0000  0.58217  0.39152  0.14358  0.0000
N2  N  1.0000  0.80607  0.61130  0.15412  0.0000
N3  N  1.0000  0.67744  0.74622  0.16342  0.0000
N4  N  1.0000  0.38944  0.38824  0.12341  0.0000
N5  N  1.0000  0.26182  0.52162  0.13261  0.0000
N6  N  1.0000  0.48581  0.74313  0.14315  0.0000
Ir1  Ir  1.0000  0.44232  0.57053  0.12432  0.0000
Rh1  Rh  1.0000  0.62518  0.56359  0.16590  0.0000
