data_CNIrSc
_audit_creation_method           'pos2cif.pl'
_cell_length_a               12.3170003891
_cell_length_b               12.3170003891315
_cell_length_c               20
_cell_angle_alpha            90
_cell_angle_beta             90
_cell_angle_gamma            120.010002136348
_symmetry_space_group_H-M        'P1'
_symmetry_Int_Tables_number      '1'
_symmetry_cell_setting           'triclinic'
loop_
_symmetry_equiv_pos_as_xyz
x,y,z

loop_
_atom_site_label
_atom_site_type_symbol
_atom_site_occupancy
_atom_site_fract_x
_atom_site_fract_y
_atom_site_fract_z
_atom_site_U_iso_or_equiv
C1  C  1.0000  0.00016  0.19966  0.13921  0.0000
C2  C  1.0000  0.06435  0.13068  0.13720  0.0000
C3  C  1.0000  0.19700  0.19512  0.13622  0.0000
C4  C  1.0000  0.26292  0.12767  0.13530  0.0000
C5  C  1.0000  0.39512  0.19531  0.13635  0.0000
C6  C  1.0000  0.46497  0.13235  0.13883  0.0000
C7  C  1.0000  0.59869  0.20289  0.14077  0.0000
C8  C  1.0000  0.66785  0.13830  0.14122  0.0000
C9  C  1.0000  0.80047  0.20410  0.14196  0.0000
C10  C  1.0000  0.86795  0.13658  0.14021  0.0000
C11  C  1.0000  -0.00084  0.40002  0.14394  0.0000
C12  C  1.0000  0.06547  0.33144  0.14120  0.0000
C13  C  1.0000  0.19753  0.39410  0.14063  0.0000
C14  C  1.0000  0.26391  0.32673  0.13740  0.0000
C15  C  1.0000  0.45876  0.32737  0.13795  0.0000
C16  C  1.0000  0.66007  0.33516  0.14450  0.0000
C17  C  1.0000  0.79581  0.40441  0.14754  0.0000
C18  C  1.0000  0.86512  0.33720  0.14445  0.0000
C19  C  1.0000  0.00177  0.59992  0.14639  0.0000
C20  C  1.0000  0.06983  0.53249  0.14470  0.0000
C21  C  1.0000  0.20623  0.59485  0.14416  0.0000
C22  C  1.0000  0.86702  0.53845  0.15060  0.0000
C23  C  1.0000  0.00073  0.79935  0.14167  0.0000
C24  C  1.0000  0.06963  0.73309  0.14390  0.0000
C25  C  1.0000  0.20305  0.79624  0.14230  0.0000
C26  C  1.0000  0.27331  0.72941  0.14385  0.0000
C27  C  1.0000  0.40806  0.80356  0.14411  0.0000
C28  C  1.0000  0.60947  0.81406  0.14699  0.0000
C29  C  1.0000  0.79824  0.79971  0.14241  0.0000
C30  C  1.0000  0.86711  0.73407  0.14623  0.0000
C31  C  1.0000  -0.00097  -0.00229  0.13728  0.0000
C32  C  1.0000  0.06571  0.93097  0.13751  0.0000
C33  C  1.0000  0.19877  0.99550  0.13678  0.0000
C34  C  1.0000  0.26716  0.93004  0.13942  0.0000
C35  C  1.0000  0.40032  -0.00021  0.14000  0.0000
C36  C  1.0000  0.47001  0.93614  0.14239  0.0000
C37  C  1.0000  0.60267  0.00573  0.14202  0.0000
C38  C  1.0000  0.67289  0.94274  0.14333  0.0000
C39  C  1.0000  0.80448  0.00540  0.14052  0.0000
C40  C  1.0000  0.86616  0.93292  0.13925  0.0000
N1  N  1.0000  0.58701  0.39307  0.14641  0.0000
N2  N  1.0000  0.80415  0.60569  0.15716  0.0000
N3  N  1.0000  0.66375  0.73724  0.15031  0.0000
N4  N  1.0000  0.39553  0.39346  0.13539  0.0000
N5  N  1.0000  0.26601  0.52296  0.14338  0.0000
N6  N  1.0000  0.48292  0.75047  0.14549  0.0000
Ir1  Ir  1.0000  0.44988  0.58133  0.13867  0.0000
Sc1  Sc  1.0000  0.62082  0.55571  0.19441  0.0000
