data_CNIrTa
_audit_creation_method           'pos2cif.pl'
_cell_length_a               12.3170003891
_cell_length_b               12.3170003891315
_cell_length_c               20
_cell_angle_alpha            90
_cell_angle_beta             90
_cell_angle_gamma            120.010002136348
_symmetry_space_group_H-M        'P1'
_symmetry_Int_Tables_number      '1'
_symmetry_cell_setting           'triclinic'
loop_
_symmetry_equiv_pos_as_xyz
x,y,z

loop_
_atom_site_label
_atom_site_type_symbol
_atom_site_occupancy
_atom_site_fract_x
_atom_site_fract_y
_atom_site_fract_z
_atom_site_U_iso_or_equiv
C1  C  1.0000  -0.00167  0.19988  0.13205  0.0000
C2  C  1.0000  0.06398  0.13172  0.12892  0.0000
C3  C  1.0000  0.19535  0.19385  0.12328  0.0000
C4  C  1.0000  0.26257  0.12643  0.12552  0.0000
C5  C  1.0000  0.39441  0.19207  0.12873  0.0000
C6  C  1.0000  0.46420  0.12934  0.13659  0.0000
C7  C  1.0000  0.59748  0.20216  0.14099  0.0000
C8  C  1.0000  0.66663  0.13717  0.14391  0.0000
C9  C  1.0000  0.79901  0.20478  0.14217  0.0000
C10  C  1.0000  0.86731  0.13801  0.14085  0.0000
C11  C  1.0000  0.99578  0.40025  0.13811  0.0000
C12  C  1.0000  0.06198  0.33148  0.13109  0.0000
C13  C  1.0000  0.19367  0.39443  0.12823  0.0000
C14  C  1.0000  0.25955  0.32440  0.12305  0.0000
C15  C  1.0000  0.45508  0.32365  0.13119  0.0000
C16  C  1.0000  0.65744  0.33475  0.14457  0.0000
C17  C  1.0000  0.79278  0.40580  0.14683  0.0000
C18  C  1.0000  0.86209  0.33806  0.14179  0.0000
C19  C  1.0000  -0.00142  0.60055  0.14690  0.0000
C20  C  1.0000  0.06536  0.53241  0.14154  0.0000
C21  C  1.0000  0.20111  0.59290  0.14031  0.0000
C22  C  1.0000  0.86373  0.54025  0.15144  0.0000
C23  C  1.0000  0.00443  0.80202  0.14634  0.0000
C24  C  1.0000  0.07095  0.73355  0.14543  0.0000
C25  C  1.0000  0.20478  0.79516  0.14237  0.0000
C26  C  1.0000  0.27456  0.72741  0.14390  0.0000
C27  C  1.0000  0.41102  0.79779  0.14800  0.0000
C28  C  1.0000  0.61468  0.81329  0.16274  0.0000
C29  C  1.0000  0.81110  0.81215  0.16173  0.0000
C30  C  1.0000  0.87338  0.74084  0.15614  0.0000
C31  C  1.0000  0.00271  0.00116  0.13718  0.0000
C32  C  1.0000  0.06833  0.93292  0.13762  0.0000
C33  C  1.0000  0.20020  0.99497  0.13216  0.0000
C34  C  1.0000  0.26836  0.92873  0.13763  0.0000
C35  C  1.0000  0.40119  0.99637  0.13951  0.0000
C36  C  1.0000  0.47067  0.93145  0.14622  0.0000
C37  C  1.0000  0.60334  0.00408  0.14816  0.0000
C38  C  1.0000  0.67474  0.94275  0.15532  0.0000
C39  C  1.0000  0.80650  0.00816  0.14997  0.0000
C40  C  1.0000  0.87333  0.94069  0.14973  0.0000
N1  N  1.0000  0.58198  0.39195  0.14739  0.0000
N2  N  1.0000  0.80294  0.61056  0.16055  0.0000
N3  N  1.0000  0.68308  0.75184  0.17562  0.0000
N4  N  1.0000  0.38954  0.38594  0.12489  0.0000
N5  N  1.0000  0.25913  0.52246  0.13451  0.0000
N6  N  1.0000  0.48794  0.74286  0.15346  0.0000
Ir1  Ir  1.0000  0.44696  0.56550  0.13912  0.0000
Ta1  Ta  1.0000  0.61475  0.56221  0.18819  0.0000
