data_CNIrTi
_audit_creation_method           'pos2cif.pl'
_cell_length_a               12.3170003891
_cell_length_b               12.3170003891315
_cell_length_c               20
_cell_angle_alpha            90
_cell_angle_beta             90
_cell_angle_gamma            120.010002136348
_symmetry_space_group_H-M        'P1'
_symmetry_Int_Tables_number      '1'
_symmetry_cell_setting           'triclinic'
loop_
_symmetry_equiv_pos_as_xyz
x,y,z

loop_
_atom_site_label
_atom_site_type_symbol
_atom_site_occupancy
_atom_site_fract_x
_atom_site_fract_y
_atom_site_fract_z
_atom_site_U_iso_or_equiv
C1  C  1.0000  0.99854  0.19993  0.13527  0.0000
C2  C  1.0000  0.06451  0.13195  0.13294  0.0000
C3  C  1.0000  0.19597  0.19435  0.12726  0.0000
C4  C  1.0000  0.26275  0.12665  0.12882  0.0000
C5  C  1.0000  0.39456  0.19224  0.12998  0.0000
C6  C  1.0000  0.46446  0.12956  0.13676  0.0000
C7  C  1.0000  0.59753  0.20202  0.14035  0.0000
C8  C  1.0000  0.66655  0.13735  0.14422  0.0000
C9  C  1.0000  0.79914  0.20477  0.14308  0.0000
C10  C  1.0000  0.86739  0.13807  0.14270  0.0000
C11  C  1.0000  0.99590  0.40014  0.13913  0.0000
C12  C  1.0000  0.06206  0.33139  0.13367  0.0000
C13  C  1.0000  0.19404  0.39490  0.13037  0.0000
C14  C  1.0000  0.26088  0.32510  0.12573  0.0000
C15  C  1.0000  0.45656  0.32405  0.13034  0.0000
C16  C  1.0000  0.65742  0.33540  0.14232  0.0000
C17  C  1.0000  0.79279  0.40556  0.14532  0.0000
C18  C  1.0000  0.86197  0.33798  0.14214  0.0000
C19  C  1.0000  -0.00082  0.60070  0.14598  0.0000
C20  C  1.0000  0.06539  0.53247  0.14143  0.0000
C21  C  1.0000  0.20077  0.59259  0.14002  0.0000
C22  C  1.0000  0.86385  0.54066  0.14952  0.0000
C23  C  1.0000  0.00418  0.80166  0.14683  0.0000
C24  C  1.0000  0.07071  0.73331  0.14521  0.0000
C25  C  1.0000  0.20514  0.79529  0.14250  0.0000
C26  C  1.0000  0.27460  0.72769  0.14334  0.0000
C27  C  1.0000  0.41098  0.79795  0.14708  0.0000
C28  C  1.0000  0.61452  0.81314  0.16100  0.0000
C29  C  1.0000  0.80824  0.80997  0.16041  0.0000
C30  C  1.0000  0.87229  0.73859  0.15514  0.0000
C31  C  1.0000  0.00273  0.00110  0.14012  0.0000
C32  C  1.0000  0.06843  0.93295  0.14005  0.0000
C33  C  1.0000  0.20021  0.99514  0.13486  0.0000
C34  C  1.0000  0.26837  0.92877  0.13885  0.0000
C35  C  1.0000  0.40121  0.99639  0.14011  0.0000
C36  C  1.0000  0.47052  0.93168  0.14618  0.0000
C37  C  1.0000  0.60334  0.00441  0.14849  0.0000
C38  C  1.0000  0.67455  0.94313  0.15540  0.0000
C39  C  1.0000  0.80608  0.00772  0.15082  0.0000
C40  C  1.0000  0.87248  0.93965  0.15055  0.0000
N1  N  1.0000  0.58395  0.39305  0.14204  0.0000
N2  N  1.0000  0.80404  0.60970  0.15711  0.0000
N3  N  1.0000  0.68043  0.75038  0.17106  0.0000
N4  N  1.0000  0.39073  0.38685  0.12529  0.0000
N5  N  1.0000  0.25819  0.52230  0.13493  0.0000
N6  N  1.0000  0.48781  0.74328  0.15098  0.0000
Ir1  Ir  1.0000  0.44967  0.56735  0.13689  0.0000
Ti1  Ti  1.0000  0.61140  0.56189  0.17936  0.0000
