data_CNIrZr
_audit_creation_method           'pos2cif.pl'
_cell_length_a               12.3170003891
_cell_length_b               12.3170003891315
_cell_length_c               20
_cell_angle_alpha            90
_cell_angle_beta             90
_cell_angle_gamma            120.010002136348
_symmetry_space_group_H-M        'P1'
_symmetry_Int_Tables_number      '1'
_symmetry_cell_setting           'triclinic'
loop_
_symmetry_equiv_pos_as_xyz
x,y,z

loop_
_atom_site_label
_atom_site_type_symbol
_atom_site_occupancy
_atom_site_fract_x
_atom_site_fract_y
_atom_site_fract_z
_atom_site_U_iso_or_equiv
C1  C  1.0000  -0.00165  0.19976  0.13133  0.0000
C2  C  1.0000  0.06425  0.13171  0.12819  0.0000
C3  C  1.0000  0.19596  0.19436  0.12375  0.0000
C4  C  1.0000  0.26281  0.12669  0.12564  0.0000
C5  C  1.0000  0.39474  0.19258  0.12819  0.0000
C6  C  1.0000  0.46463  0.12971  0.13501  0.0000
C7  C  1.0000  0.59753  0.20184  0.13945  0.0000
C8  C  1.0000  0.66655  0.13721  0.14250  0.0000
C9  C  1.0000  0.79917  0.20467  0.14110  0.0000
C10  C  1.0000  0.86730  0.13790  0.13922  0.0000
C11  C  1.0000  -0.00417  0.40004  0.13828  0.0000
C12  C  1.0000  0.06192  0.33140  0.13124  0.0000
C13  C  1.0000  0.19382  0.39486  0.12921  0.0000
C14  C  1.0000  0.26078  0.32522  0.12492  0.0000
C15  C  1.0000  0.45651  0.32433  0.13151  0.0000
C16  C  1.0000  0.65753  0.33516  0.14342  0.0000
C17  C  1.0000  0.79302  0.40548  0.14665  0.0000
C18  C  1.0000  0.86209  0.33783  0.14158  0.0000
C19  C  1.0000  -0.00047  0.60067  0.14688  0.0000
C20  C  1.0000  0.06541  0.53241  0.14176  0.0000
C21  C  1.0000  0.20072  0.59265  0.14081  0.0000
C22  C  1.0000  0.86446  0.54038  0.15172  0.0000
C23  C  1.0000  0.00410  0.80168  0.14547  0.0000
C24  C  1.0000  0.07085  0.73340  0.14514  0.0000
C25  C  1.0000  0.20515  0.79546  0.14220  0.0000
C26  C  1.0000  0.27461  0.72780  0.14449  0.0000
C27  C  1.0000  0.41089  0.79809  0.14886  0.0000
C28  C  1.0000  0.61485  0.81423  0.16272  0.0000
C29  C  1.0000  0.80886  0.81082  0.16035  0.0000
C30  C  1.0000  0.87259  0.73893  0.15582  0.0000
C31  C  1.0000  0.00235  0.00075  0.13556  0.0000
C32  C  1.0000  0.06814  0.93261  0.13656  0.0000
C33  C  1.0000  0.20010  0.99502  0.13166  0.0000
C34  C  1.0000  0.26836  0.92885  0.13706  0.0000
C35  C  1.0000  0.40124  0.99647  0.13841  0.0000
C36  C  1.0000  0.47052  0.93188  0.14563  0.0000
C37  C  1.0000  0.60326  0.00444  0.14696  0.0000
C38  C  1.0000  0.67468  0.94331  0.15384  0.0000
C39  C  1.0000  0.80609  0.00760  0.14754  0.0000
C40  C  1.0000  0.87256  0.93975  0.14720  0.0000
N1  N  1.0000  0.58367  0.39218  0.14464  0.0000
N2  N  1.0000  0.80537  0.60977  0.16121  0.0000
N3  N  1.0000  0.68248  0.75360  0.17459  0.0000
N4  N  1.0000  0.39054  0.38737  0.12880  0.0000
N5  N  1.0000  0.25794  0.52223  0.13564  0.0000
N6  N  1.0000  0.48729  0.74340  0.15544  0.0000
Ir1  Ir  1.0000  0.44615  0.56597  0.14474  0.0000
Zr1  Zr  1.0000  0.61145  0.55867  0.19901  0.0000
