data_CNMnNi
_audit_creation_method           'pos2cif.pl'
_cell_length_a               12.3170003891
_cell_length_b               12.3170003891315
_cell_length_c               20
_cell_angle_alpha            90
_cell_angle_beta             90
_cell_angle_gamma            120.010002136348
_symmetry_space_group_H-M        'P1'
_symmetry_Int_Tables_number      '1'
_symmetry_cell_setting           'triclinic'
loop_
_symmetry_equiv_pos_as_xyz
x,y,z

loop_
_atom_site_label
_atom_site_type_symbol
_atom_site_occupancy
_atom_site_fract_x
_atom_site_fract_y
_atom_site_fract_z
_atom_site_U_iso_or_equiv
C1  C  1.0000  0.99813  0.19968  0.14204  0.0000
C2  C  1.0000  0.06423  0.13205  0.14172  0.0000
C3  C  1.0000  0.19618  0.19575  0.14194  0.0000
C4  C  1.0000  0.26345  0.12889  0.14212  0.0000
C5  C  1.0000  0.39538  0.19527  0.14275  0.0000
C6  C  1.0000  0.46490  0.13152  0.14309  0.0000
C7  C  1.0000  0.59761  0.20342  0.14349  0.0000
C8  C  1.0000  0.66600  0.13688  0.14327  0.0000
C9  C  1.0000  0.79864  0.20390  0.14298  0.0000
C10  C  1.0000  0.86616  0.13673  0.14237  0.0000
C11  C  1.0000  0.99600  0.39995  0.14306  0.0000
C12  C  1.0000  0.06226  0.33151  0.14249  0.0000
C13  C  1.0000  0.19455  0.39546  0.14276  0.0000
C14  C  1.0000  0.26122  0.32687  0.14263  0.0000
C15  C  1.0000  0.45745  0.32746  0.14345  0.0000
C16  C  1.0000  0.65775  0.33801  0.14388  0.0000
C17  C  1.0000  0.79344  0.40587  0.14380  0.0000
C18  C  1.0000  0.86196  0.33767  0.14329  0.0000
C19  C  1.0000  0.00123  0.60139  0.14342  0.0000
C20  C  1.0000  0.06696  0.53281  0.14335  0.0000
C21  C  1.0000  0.20204  0.59346  0.14351  0.0000
C22  C  1.0000  0.86585  0.54087  0.14375  0.0000
C23  C  1.0000  0.00465  0.80191  0.14269  0.0000
C24  C  1.0000  0.07130  0.73385  0.14306  0.0000
C25  C  1.0000  0.20535  0.79662  0.14310  0.0000
C26  C  1.0000  0.27384  0.72857  0.14361  0.0000
C27  C  1.0000  0.40932  0.79804  0.14389  0.0000
C28  C  1.0000  0.61041  0.80610  0.14386  0.0000
C29  C  1.0000  0.80408  0.80476  0.14316  0.0000
C30  C  1.0000  0.87233  0.73727  0.14321  0.0000
C31  C  1.0000  0.00155  0.00021  0.14186  0.0000
C32  C  1.0000  0.06859  0.93359  0.14208  0.0000
C33  C  1.0000  0.20076  0.99702  0.14216  0.0000
C34  C  1.0000  0.26867  0.93018  0.14273  0.0000
C35  C  1.0000  0.40131  0.99769  0.14305  0.0000
C36  C  1.0000  0.46971  0.93179  0.14347  0.0000
C37  C  1.0000  0.60271  0.00297  0.14331  0.0000
C38  C  1.0000  0.67218  0.93866  0.14314  0.0000
C39  C  1.0000  0.80353  0.00455  0.14249  0.0000
C40  C  1.0000  0.86942  0.93624  0.14236  0.0000
N1  N  1.0000  0.58501  0.39736  0.14419  0.0000
N2  N  1.0000  0.80667  0.60975  0.14388  0.0000
N3  N  1.0000  0.67402  0.73949  0.14400  0.0000
N4  N  1.0000  0.39109  0.39055  0.14357  0.0000
N5  N  1.0000  0.26143  0.52392  0.14348  0.0000
N6  N  1.0000  0.48208  0.73978  0.14452  0.0000
Mn1  Mn  1.0000  0.44399  0.56588  0.14523  0.0000
Ni1  Ni  1.0000  0.63166  0.56901  0.14466  0.0000
