data_CNMnOs
_audit_creation_method           'pos2cif.pl'
_cell_length_a               12.3170003891
_cell_length_b               12.3170003891315
_cell_length_c               20
_cell_angle_alpha            90
_cell_angle_beta             90
_cell_angle_gamma            120.010002136348
_symmetry_space_group_H-M        'P1'
_symmetry_Int_Tables_number      '1'
_symmetry_cell_setting           'triclinic'
loop_
_symmetry_equiv_pos_as_xyz
x,y,z

loop_
_atom_site_label
_atom_site_type_symbol
_atom_site_occupancy
_atom_site_fract_x
_atom_site_fract_y
_atom_site_fract_z
_atom_site_U_iso_or_equiv
C1  C  1.0000  0.99954  0.20130  0.14135  0.0000
C2  C  1.0000  0.06541  0.13351  0.14053  0.0000
C3  C  1.0000  0.19675  0.19555  0.14102  0.0000
C4  C  1.0000  0.26190  0.12664  0.14120  0.0000
C5  C  1.0000  0.39315  0.19127  0.14237  0.0000
C6  C  1.0000  0.46394  0.12881  0.14303  0.0000
C7  C  1.0000  0.59687  0.20068  0.14364  0.0000
C8  C  1.0000  0.66645  0.13647  0.14346  0.0000
C9  C  1.0000  0.79935  0.20511  0.14302  0.0000
C10  C  1.0000  0.86761  0.13896  0.14193  0.0000
C11  C  1.0000  0.99684  0.40080  0.14355  0.0000
C12  C  1.0000  0.06381  0.33284  0.14252  0.0000
C13  C  1.0000  0.19603  0.39590  0.14304  0.0000
C14  C  1.0000  0.26196  0.32667  0.14244  0.0000
C15  C  1.0000  0.45285  0.32131  0.14339  0.0000
C16  C  1.0000  0.65710  0.33353  0.14412  0.0000
C17  C  1.0000  0.79309  0.40602  0.14424  0.0000
C18  C  1.0000  0.86274  0.33868  0.14360  0.0000
C19  C  1.0000  -0.00036  0.60104  0.14416  0.0000
C20  C  1.0000  0.06744  0.53321  0.14418  0.0000
C21  C  1.0000  0.20326  0.59341  0.14434  0.0000
C22  C  1.0000  0.86380  0.54048  0.14437  0.0000
C23  C  1.0000  0.00441  0.80228  0.14237  0.0000
C24  C  1.0000  0.07058  0.73341  0.14336  0.0000
C25  C  1.0000  0.20459  0.79519  0.14335  0.0000
C26  C  1.0000  0.27404  0.72775  0.14422  0.0000
C27  C  1.0000  0.40999  0.79775  0.14430  0.0000
C28  C  1.0000  0.61299  0.81018  0.14407  0.0000
C29  C  1.0000  0.80716  0.80970  0.14295  0.0000
C30  C  1.0000  0.87290  0.74056  0.14318  0.0000
C31  C  1.0000  0.00301  0.00207  0.14058  0.0000
C32  C  1.0000  0.06834  0.93366  0.14103  0.0000
C33  C  1.0000  0.19995  0.99534  0.14124  0.0000
C34  C  1.0000  0.26794  0.92854  0.14248  0.0000
C35  C  1.0000  0.40063  0.99582  0.14309  0.0000
C36  C  1.0000  0.46997  0.93101  0.14382  0.0000
C37  C  1.0000  0.60311  0.00346  0.14360  0.0000
C38  C  1.0000  0.67368  0.94116  0.14326  0.0000
C39  C  1.0000  0.80527  0.00739  0.14208  0.0000
C40  C  1.0000  0.87174  0.94021  0.14159  0.0000
N1  N  1.0000  0.58190  0.38869  0.14445  0.0000
N2  N  1.0000  0.80425  0.61256  0.14437  0.0000
N3  N  1.0000  0.67822  0.74628  0.14426  0.0000
N4  N  1.0000  0.39087  0.38919  0.14361  0.0000
N5  N  1.0000  0.26439  0.52389  0.14424  0.0000
N6  N  1.0000  0.48370  0.74038  0.14472  0.0000
Mn1  Mn  1.0000  0.44871  0.57242  0.14497  0.0000
Os1  Os  1.0000  0.61518  0.56007  0.14525  0.0000
