data_CNMnRe
_audit_creation_method           'pos2cif.pl'
_cell_length_a               12.3170003891
_cell_length_b               12.3170003891315
_cell_length_c               20
_cell_angle_alpha            90
_cell_angle_beta             90
_cell_angle_gamma            120.010002136348
_symmetry_space_group_H-M        'P1'
_symmetry_Int_Tables_number      '1'
_symmetry_cell_setting           'triclinic'
loop_
_symmetry_equiv_pos_as_xyz
x,y,z

loop_
_atom_site_label
_atom_site_type_symbol
_atom_site_occupancy
_atom_site_fract_x
_atom_site_fract_y
_atom_site_fract_z
_atom_site_U_iso_or_equiv
C1  C  1.0000  0.99934  0.20104  0.13769  0.0000
C2  C  1.0000  0.06513  0.13316  0.13498  0.0000
C3  C  1.0000  0.19667  0.19564  0.13253  0.0000
C4  C  1.0000  0.26247  0.12707  0.13213  0.0000
C5  C  1.0000  0.39400  0.19205  0.13417  0.0000
C6  C  1.0000  0.46418  0.12904  0.13812  0.0000
C7  C  1.0000  0.59719  0.20161  0.14169  0.0000
C8  C  1.0000  0.66643  0.13670  0.14244  0.0000
C9  C  1.0000  0.79915  0.20487  0.14281  0.0000
C10  C  1.0000  0.86748  0.13850  0.14136  0.0000
C11  C  1.0000  0.99655  0.40060  0.14272  0.0000
C12  C  1.0000  0.06350  0.33267  0.13873  0.0000
C13  C  1.0000  0.19583  0.39618  0.13773  0.0000
C14  C  1.0000  0.26133  0.32648  0.13411  0.0000
C15  C  1.0000  0.45391  0.32250  0.13812  0.0000
C16  C  1.0000  0.65719  0.33427  0.14655  0.0000
C17  C  1.0000  0.79279  0.40572  0.14775  0.0000
C18  C  1.0000  0.86240  0.33831  0.14430  0.0000
C19  C  1.0000  -0.00058  0.60094  0.14624  0.0000
C20  C  1.0000  0.06686  0.53292  0.14418  0.0000
C21  C  1.0000  0.20272  0.59306  0.14319  0.0000
C22  C  1.0000  0.86389  0.54060  0.14933  0.0000
C23  C  1.0000  0.00436  0.80210  0.14333  0.0000
C24  C  1.0000  0.07073  0.73350  0.14368  0.0000
C25  C  1.0000  0.20481  0.79530  0.14148  0.0000
C26  C  1.0000  0.27427  0.72764  0.14328  0.0000
C27  C  1.0000  0.41021  0.79685  0.14456  0.0000
C28  C  1.0000  0.61273  0.81070  0.15254  0.0000
C29  C  1.0000  0.80857  0.81043  0.15206  0.0000
C30  C  1.0000  0.87273  0.74008  0.14932  0.0000
C31  C  1.0000  0.00303  0.00186  0.13798  0.0000
C32  C  1.0000  0.06842  0.93345  0.13804  0.0000
C33  C  1.0000  0.20023  0.99552  0.13502  0.0000
C34  C  1.0000  0.26817  0.92867  0.13798  0.0000
C35  C  1.0000  0.40098  0.99590  0.13900  0.0000
C36  C  1.0000  0.47011  0.93053  0.14275  0.0000
C37  C  1.0000  0.60305  0.00345  0.14360  0.0000
C38  C  1.0000  0.67364  0.94120  0.14720  0.0000
C39  C  1.0000  0.80538  0.00728  0.14483  0.0000
C40  C  1.0000  0.87213  0.94005  0.14460  0.0000
N1  N  1.0000  0.58124  0.39005  0.15114  0.0000
N2  N  1.0000  0.80367  0.61142  0.15269  0.0000
N3  N  1.0000  0.67983  0.74868  0.16095  0.0000
N4  N  1.0000  0.39086  0.38874  0.13522  0.0000
N5  N  1.0000  0.26357  0.52419  0.14115  0.0000
N6  N  1.0000  0.48448  0.73907  0.14803  0.0000
Mn1  Mn  1.0000  0.45032  0.56732  0.14084  0.0000
Re1  Re  1.0000  0.61109  0.56324  0.16978  0.0000
