data_CNMnRh
_audit_creation_method           'pos2cif.pl'
_cell_length_a               12.3170003891
_cell_length_b               12.3170003891315
_cell_length_c               20
_cell_angle_alpha            90
_cell_angle_beta             90
_cell_angle_gamma            120.010002136348
_symmetry_space_group_H-M        'P1'
_symmetry_Int_Tables_number      '1'
_symmetry_cell_setting           'triclinic'
loop_
_symmetry_equiv_pos_as_xyz
x,y,z

loop_
_atom_site_label
_atom_site_type_symbol
_atom_site_occupancy
_atom_site_fract_x
_atom_site_fract_y
_atom_site_fract_z
_atom_site_U_iso_or_equiv
C1  C  1.0000  0.99935  0.20086  0.14177  0.0000
C2  C  1.0000  0.06609  0.13403  0.14135  0.0000
C3  C  1.0000  0.19816  0.19764  0.14170  0.0000
C4  C  1.0000  0.26340  0.12860  0.14182  0.0000
C5  C  1.0000  0.39489  0.19266  0.14264  0.0000
C6  C  1.0000  0.46479  0.12945  0.14300  0.0000
C7  C  1.0000  0.59756  0.20000  0.14348  0.0000
C8  C  1.0000  0.66656  0.13541  0.14322  0.0000
C9  C  1.0000  0.79934  0.20393  0.14288  0.0000
C10  C  1.0000  0.86731  0.13780  0.14214  0.0000
C11  C  1.0000  0.99647  0.40041  0.14317  0.0000
C12  C  1.0000  0.06332  0.33235  0.14247  0.0000
C13  C  1.0000  0.19565  0.39674  0.14292  0.0000
C14  C  1.0000  0.26436  0.32929  0.14268  0.0000
C15  C  1.0000  0.45757  0.32330  0.14359  0.0000
C16  C  1.0000  0.65851  0.33315  0.14399  0.0000
C17  C  1.0000  0.79384  0.40508  0.14392  0.0000
C18  C  1.0000  0.86273  0.33769  0.14331  0.0000
C19  C  1.0000  -0.00037  0.60164  0.14369  0.0000
C20  C  1.0000  0.06537  0.53326  0.14363  0.0000
C21  C  1.0000  0.19988  0.59454  0.14385  0.0000
C22  C  1.0000  0.86436  0.54041  0.14396  0.0000
C23  C  1.0000  0.00460  0.80291  0.14260  0.0000
C24  C  1.0000  0.07046  0.73413  0.14318  0.0000
C25  C  1.0000  0.20448  0.79678  0.14317  0.0000
C26  C  1.0000  0.27304  0.72913  0.14385  0.0000
C27  C  1.0000  0.40892  0.79816  0.14403  0.0000
C28  C  1.0000  0.61129  0.80788  0.14389  0.0000
C29  C  1.0000  0.80529  0.80766  0.14307  0.0000
C30  C  1.0000  0.87279  0.73966  0.14322  0.0000
C31  C  1.0000  0.00297  0.00220  0.14144  0.0000
C32  C  1.0000  0.06875  0.93450  0.14172  0.0000
C33  C  1.0000  0.20054  0.99712  0.14180  0.0000
C34  C  1.0000  0.26809  0.92996  0.14258  0.0000
C35  C  1.0000  0.40070  0.99642  0.14296  0.0000
C36  C  1.0000  0.46952  0.93137  0.14350  0.0000
C37  C  1.0000  0.60280  0.00241  0.14331  0.0000
C38  C  1.0000  0.67299  0.93966  0.14311  0.0000
C39  C  1.0000  0.80446  0.00595  0.14229  0.0000
C40  C  1.0000  0.87099  0.93872  0.14209  0.0000
N1  N  1.0000  0.58493  0.38859  0.14442  0.0000
N2  N  1.0000  0.80709  0.61191  0.14401  0.0000
N3  N  1.0000  0.67581  0.74346  0.14402  0.0000
N4  N  1.0000  0.39558  0.39119  0.14381  0.0000
N5  N  1.0000  0.25875  0.52538  0.14387  0.0000
N6  N  1.0000  0.48253  0.74112  0.14464  0.0000
Mn1  Mn  1.0000  0.43459  0.56598  0.14548  0.0000
Rh1  Rh  1.0000  0.62592  0.56068  0.14471  0.0000
