data_CNMnTa
_audit_creation_method           'pos2cif.pl'
_cell_length_a               12.3170003891
_cell_length_b               12.3170003891315
_cell_length_c               20
_cell_angle_alpha            90
_cell_angle_beta             90
_cell_angle_gamma            120.010002136348
_symmetry_space_group_H-M        'P1'
_symmetry_Int_Tables_number      '1'
_symmetry_cell_setting           'triclinic'
loop_
_symmetry_equiv_pos_as_xyz
x,y,z

loop_
_atom_site_label
_atom_site_type_symbol
_atom_site_occupancy
_atom_site_fract_x
_atom_site_fract_y
_atom_site_fract_z
_atom_site_U_iso_or_equiv
C1  C  1.0000  0.00146  0.20189  0.13849  0.0000
C2  C  1.0000  0.06827  0.13525  0.13872  0.0000
C3  C  1.0000  0.20088  0.20009  0.14210  0.0000
C4  C  1.0000  0.26462  0.12942  0.14402  0.0000
C5  C  1.0000  0.39609  0.19339  0.14837  0.0000
C6  C  1.0000  0.46554  0.12959  0.14822  0.0000
C7  C  1.0000  0.59909  0.20023  0.14868  0.0000
C8  C  1.0000  0.66769  0.13518  0.14379  0.0000
C9  C  1.0000  0.80038  0.20367  0.14156  0.0000
C10  C  1.0000  0.86861  0.13747  0.13810  0.0000
C11  C  1.0000  0.99795  0.40078  0.14255  0.0000
C12  C  1.0000  0.06582  0.33347  0.14119  0.0000
C13  C  1.0000  0.19861  0.39883  0.14582  0.0000
C14  C  1.0000  0.26703  0.33205  0.14568  0.0000
C15  C  1.0000  0.45972  0.32413  0.15419  0.0000
C16  C  1.0000  0.66116  0.33244  0.15076  0.0000
C17  C  1.0000  0.79521  0.40487  0.14457  0.0000
C18  C  1.0000  0.86428  0.33726  0.14284  0.0000
C19  C  1.0000  -0.00240  0.60076  0.14126  0.0000
C20  C  1.0000  0.06534  0.53325  0.14426  0.0000
C21  C  1.0000  0.20057  0.59479  0.14863  0.0000
C22  C  1.0000  0.86233  0.53901  0.13933  0.0000
C23  C  1.0000  0.00244  0.80146  0.13835  0.0000
C24  C  1.0000  0.06949  0.73381  0.14108  0.0000
C25  C  1.0000  0.20329  0.79646  0.14420  0.0000
C26  C  1.0000  0.27264  0.72894  0.14738  0.0000
C27  C  1.0000  0.40872  0.79823  0.14628  0.0000
C28  C  1.0000  0.60955  0.80747  0.13706  0.0000
C29  C  1.0000  0.80592  0.80704  0.13304  0.0000
C30  C  1.0000  0.86976  0.73756  0.13472  0.0000
C31  C  1.0000  0.00381  0.00266  0.13735  0.0000
C32  C  1.0000  0.06820  0.93375  0.13917  0.0000
C33  C  1.0000  0.20066  0.99736  0.14233  0.0000
C34  C  1.0000  0.26810  0.93018  0.14420  0.0000
C35  C  1.0000  0.40103  0.99686  0.14566  0.0000
C36  C  1.0000  0.46998  0.93134  0.14428  0.0000
C37  C  1.0000  0.60302  0.00209  0.14190  0.0000
C38  C  1.0000  0.67277  0.93887  0.13702  0.0000
C39  C  1.0000  0.80525  0.00590  0.13556  0.0000
C40  C  1.0000  0.87164  0.93847  0.13492  0.0000
N1  N  1.0000  0.58856  0.39039  0.15684  0.0000
N2  N  1.0000  0.79832  0.60733  0.13270  0.0000
N3  N  1.0000  0.67446  0.74148  0.13007  0.0000
N4  N  1.0000  0.40017  0.39642  0.15528  0.0000
N5  N  1.0000  0.26113  0.52660  0.15352  0.0000
N6  N  1.0000  0.48283  0.74086  0.14680  0.0000
Mn1  Mn  1.0000  0.43860  0.57359  0.17909  0.0000
Ta1  Ta  1.0000  0.59845  0.54823  0.12000  0.0000
