data_CNMnTc
_audit_creation_method           'pos2cif.pl'
_cell_length_a               12.3170003891
_cell_length_b               12.3170003891315
_cell_length_c               20
_cell_angle_alpha            90
_cell_angle_beta             90
_cell_angle_gamma            120.010002136348
_symmetry_space_group_H-M        'P1'
_symmetry_Int_Tables_number      '1'
_symmetry_cell_setting           'triclinic'
loop_
_symmetry_equiv_pos_as_xyz
x,y,z

loop_
_atom_site_label
_atom_site_type_symbol
_atom_site_occupancy
_atom_site_fract_x
_atom_site_fract_y
_atom_site_fract_z
_atom_site_U_iso_or_equiv
C1  C  1.0000  0.99973  0.20126  0.14000  0.0000
C2  C  1.0000  0.06533  0.13317  0.13803  0.0000
C3  C  1.0000  0.19683  0.19555  0.13676  0.0000
C4  C  1.0000  0.26232  0.12681  0.13600  0.0000
C5  C  1.0000  0.39369  0.19149  0.13742  0.0000
C6  C  1.0000  0.46418  0.12885  0.13965  0.0000
C7  C  1.0000  0.59719  0.20157  0.14209  0.0000
C8  C  1.0000  0.66660  0.13709  0.14223  0.0000
C9  C  1.0000  0.79945  0.20512  0.14289  0.0000
C10  C  1.0000  0.86786  0.13895  0.14176  0.0000
C11  C  1.0000  0.99693  0.40070  0.14352  0.0000
C12  C  1.0000  0.06402  0.33286  0.14128  0.0000
C13  C  1.0000  0.19645  0.39646  0.14112  0.0000
C14  C  1.0000  0.26182  0.32643  0.13856  0.0000
C15  C  1.0000  0.45418  0.32205  0.14077  0.0000
C16  C  1.0000  0.65714  0.33453  0.14601  0.0000
C17  C  1.0000  0.79303  0.40575  0.14661  0.0000
C18  C  1.0000  0.86267  0.33853  0.14428  0.0000
C19  C  1.0000  -0.00031  0.60084  0.14483  0.0000
C20  C  1.0000  0.06730  0.53303  0.14414  0.0000
C21  C  1.0000  0.20305  0.59301  0.14377  0.0000
C22  C  1.0000  0.86403  0.54063  0.14709  0.0000
C23  C  1.0000  0.00378  0.80159  0.14234  0.0000
C24  C  1.0000  0.07049  0.73325  0.14276  0.0000
C25  C  1.0000  0.20474  0.79506  0.14145  0.0000
C26  C  1.0000  0.27429  0.72755  0.14298  0.0000
C27  C  1.0000  0.41024  0.79676  0.14344  0.0000
C28  C  1.0000  0.61313  0.81170  0.14844  0.0000
C29  C  1.0000  0.80722  0.80961  0.14820  0.0000
C30  C  1.0000  0.87162  0.73864  0.14642  0.0000
C31  C  1.0000  0.00303  0.00183  0.13929  0.0000
C32  C  1.0000  0.06814  0.93314  0.13915  0.0000
C33  C  1.0000  0.19993  0.99515  0.13740  0.0000
C34  C  1.0000  0.26800  0.92841  0.13921  0.0000
C35  C  1.0000  0.40084  0.99563  0.13990  0.0000
C36  C  1.0000  0.47012  0.93055  0.14210  0.0000
C37  C  1.0000  0.60315  0.00401  0.14252  0.0000
C38  C  1.0000  0.67388  0.94218  0.14467  0.0000
C39  C  1.0000  0.80547  0.00750  0.14341  0.0000
C40  C  1.0000  0.87186  0.93989  0.14325  0.0000
N1  N  1.0000  0.58205  0.39020  0.14968  0.0000
N2  N  1.0000  0.80364  0.61061  0.14914  0.0000
N3  N  1.0000  0.67891  0.74954  0.15424  0.0000
N4  N  1.0000  0.39083  0.38816  0.13949  0.0000
N5  N  1.0000  0.26422  0.52428  0.14340  0.0000
N6  N  1.0000  0.48454  0.73913  0.14557  0.0000
Mn1  Mn  1.0000  0.45395  0.56885  0.14273  0.0000
Tc1  Tc  1.0000  0.60549  0.56324  0.16194  0.0000
