data_CNMnY
_audit_creation_method           'pos2cif.pl'
_cell_length_a               12.3170003891
_cell_length_b               12.3170003891315
_cell_length_c               20
_cell_angle_alpha            90
_cell_angle_beta             90
_cell_angle_gamma            120.010002136348
_symmetry_space_group_H-M        'P1'
_symmetry_Int_Tables_number      '1'
_symmetry_cell_setting           'triclinic'
loop_
_symmetry_equiv_pos_as_xyz
x,y,z

loop_
_atom_site_label
_atom_site_type_symbol
_atom_site_occupancy
_atom_site_fract_x
_atom_site_fract_y
_atom_site_fract_z
_atom_site_U_iso_or_equiv
C1  C  1.0000  0.00064  0.20089  0.14432  0.0000
C2  C  1.0000  0.06699  0.13391  0.14306  0.0000
C3  C  1.0000  0.19956  0.19880  0.14171  0.0000
C4  C  1.0000  0.26421  0.12933  0.13944  0.0000
C5  C  1.0000  0.39637  0.19468  0.13771  0.0000
C6  C  1.0000  0.46571  0.13072  0.13798  0.0000
C7  C  1.0000  0.59893  0.20080  0.13907  0.0000
C8  C  1.0000  0.66762  0.13583  0.14071  0.0000
C9  C  1.0000  0.80033  0.20342  0.14309  0.0000
C10  C  1.0000  0.86806  0.13678  0.14392  0.0000
C11  C  1.0000  -0.00205  0.40021  0.14479  0.0000
C12  C  1.0000  0.06521  0.33255  0.14463  0.0000
C13  C  1.0000  0.19788  0.39767  0.14336  0.0000
C14  C  1.0000  0.26594  0.33078  0.14229  0.0000
C15  C  1.0000  0.46107  0.32610  0.13717  0.0000
C16  C  1.0000  0.66062  0.33355  0.14120  0.0000
C17  C  1.0000  0.79563  0.40453  0.14539  0.0000
C18  C  1.0000  0.86454  0.33691  0.14453  0.0000
C19  C  1.0000  -0.00008  0.60099  0.14540  0.0000
C20  C  1.0000  0.06652  0.53317  0.14392  0.0000
C21  C  1.0000  0.20114  0.59502  0.14140  0.0000
C22  C  1.0000  0.86504  0.53905  0.14877  0.0000
C23  C  1.0000  0.00232  0.80128  0.14483  0.0000
C24  C  1.0000  0.06980  0.73390  0.14395  0.0000
C25  C  1.0000  0.20360  0.79705  0.14078  0.0000
C26  C  1.0000  0.27253  0.72940  0.13959  0.0000
C27  C  1.0000  0.40839  0.79934  0.13827  0.0000
C28  C  1.0000  0.60913  0.80862  0.14337  0.0000
C29  C  1.0000  0.80313  0.80477  0.14756  0.0000
C30  C  1.0000  0.86936  0.73601  0.14919  0.0000
C31  C  1.0000  0.00249  0.00129  0.14319  0.0000
C32  C  1.0000  0.06771  0.93322  0.14231  0.0000
C33  C  1.0000  0.20039  0.99744  0.14009  0.0000
C34  C  1.0000  0.26803  0.93054  0.13947  0.0000
C35  C  1.0000  0.40085  0.99768  0.13870  0.0000
C36  C  1.0000  0.46965  0.93242  0.13926  0.0000
C37  C  1.0000  0.60283  0.00303  0.14046  0.0000
C38  C  1.0000  0.67236  0.93969  0.14309  0.0000
C39  C  1.0000  0.80457  0.00510  0.14433  0.0000
C40  C  1.0000  0.87025  0.93680  0.14482  0.0000
N1  N  1.0000  0.58869  0.39151  0.14017  0.0000
N2  N  1.0000  0.80316  0.60671  0.15527  0.0000
N3  N  1.0000  0.67185  0.74215  0.15006  0.0000
N4  N  1.0000  0.39969  0.39614  0.13842  0.0000
N5  N  1.0000  0.26180  0.52671  0.14031  0.0000
N6  N  1.0000  0.48188  0.74226  0.13664  0.0000
Mn1  Mn  1.0000  0.43471  0.56842  0.11709  0.0000
Y1  Y  1.0000  0.60795  0.55401  0.19687  0.0000
