data_CNMnZn
_audit_creation_method           'pos2cif.pl'
_cell_length_a               12.3170003891
_cell_length_b               12.3170003891315
_cell_length_c               20
_cell_angle_alpha            90
_cell_angle_beta             90
_cell_angle_gamma            120.010002136348
_symmetry_space_group_H-M        'P1'
_symmetry_Int_Tables_number      '1'
_symmetry_cell_setting           'triclinic'
loop_
_symmetry_equiv_pos_as_xyz
x,y,z

loop_
_atom_site_label
_atom_site_type_symbol
_atom_site_occupancy
_atom_site_fract_x
_atom_site_fract_y
_atom_site_fract_z
_atom_site_U_iso_or_equiv
C1  C  1.0000  0.99879  0.20003  0.13940  0.0000
C2  C  1.0000  0.06541  0.13328  0.13951  0.0000
C3  C  1.0000  0.19746  0.19741  0.14114  0.0000
C4  C  1.0000  0.26338  0.12922  0.14167  0.0000
C5  C  1.0000  0.39513  0.19449  0.14248  0.0000
C6  C  1.0000  0.46500  0.13098  0.14220  0.0000
C7  C  1.0000  0.59790  0.20134  0.14229  0.0000
C8  C  1.0000  0.66642  0.13559  0.14145  0.0000
C9  C  1.0000  0.79897  0.20321  0.14048  0.0000
C10  C  1.0000  0.86647  0.13626  0.13931  0.0000
C11  C  1.0000  0.99638  0.39984  0.14135  0.0000
C12  C  1.0000  0.06301  0.33162  0.14063  0.0000
C13  C  1.0000  0.19522  0.39599  0.14239  0.0000
C14  C  1.0000  0.26309  0.32895  0.14304  0.0000
C15  C  1.0000  0.45748  0.32563  0.14505  0.0000
C16  C  1.0000  0.65879  0.33466  0.14319  0.0000
C17  C  1.0000  0.79433  0.40523  0.14251  0.0000
C18  C  1.0000  0.86292  0.33702  0.14125  0.0000
C19  C  1.0000  0.00112  0.60145  0.14242  0.0000
C20  C  1.0000  0.06646  0.53296  0.14258  0.0000
C21  C  1.0000  0.20059  0.59448  0.14460  0.0000
C22  C  1.0000  0.86658  0.54008  0.14261  0.0000
C23  C  1.0000  0.00506  0.80306  0.14109  0.0000
C24  C  1.0000  0.07107  0.73434  0.14243  0.0000
C25  C  1.0000  0.20462  0.79722  0.14358  0.0000
C26  C  1.0000  0.27290  0.72911  0.14561  0.0000
C27  C  1.0000  0.40846  0.79881  0.14680  0.0000
C28  C  1.0000  0.60893  0.80648  0.14429  0.0000
C29  C  1.0000  0.80479  0.80556  0.14097  0.0000
C30  C  1.0000  0.87321  0.73874  0.14132  0.0000
C31  C  1.0000  0.00229  0.00119  0.13945  0.0000
C32  C  1.0000  0.06885  0.93442  0.14048  0.0000
C33  C  1.0000  0.20090  0.99784  0.14141  0.0000
C34  C  1.0000  0.26844  0.93078  0.14266  0.0000
C35  C  1.0000  0.40088  0.99766  0.14265  0.0000
C36  C  1.0000  0.46929  0.93182  0.14368  0.0000
C37  C  1.0000  0.60236  0.00237  0.14214  0.0000
C38  C  1.0000  0.67165  0.93825  0.14093  0.0000
C39  C  1.0000  0.80360  0.00444  0.13923  0.0000
C40  C  1.0000  0.87017  0.93695  0.13958  0.0000
N1  N  1.0000  0.58430  0.39058  0.14499  0.0000
N2  N  1.0000  0.80894  0.61066  0.14303  0.0000
N3  N  1.0000  0.67392  0.74163  0.14264  0.0000
N4  N  1.0000  0.39458  0.39260  0.14790  0.0000
N5  N  1.0000  0.25991  0.52516  0.14589  0.0000
N6  N  1.0000  0.48175  0.74099  0.15083  0.0000
Mn1  Mn  1.0000  0.43031  0.56496  0.16823  0.0000
Zn1  Zn  1.0000  0.63497  0.56582  0.14856  0.0000
