data_CNMoNb
_audit_creation_method           'pos2cif.pl'
_cell_length_a               12.3170003891
_cell_length_b               12.3170003891315
_cell_length_c               20
_cell_angle_alpha            90
_cell_angle_beta             90
_cell_angle_gamma            120.010002136348
_symmetry_space_group_H-M        'P1'
_symmetry_Int_Tables_number      '1'
_symmetry_cell_setting           'triclinic'
loop_
_symmetry_equiv_pos_as_xyz
x,y,z

loop_
_atom_site_label
_atom_site_type_symbol
_atom_site_occupancy
_atom_site_fract_x
_atom_site_fract_y
_atom_site_fract_z
_atom_site_U_iso_or_equiv
C1  C  1.0000  -0.00035  0.20147  0.12526  0.0000
C2  C  1.0000  0.06492  0.13273  0.12053  0.0000
C3  C  1.0000  0.19591  0.19394  0.12654  0.0000
C4  C  1.0000  0.26238  0.12590  0.12705  0.0000
C5  C  1.0000  0.39370  0.19110  0.13467  0.0000
C6  C  1.0000  0.46416  0.12878  0.13601  0.0000
C7  C  1.0000  0.59727  0.20220  0.14057  0.0000
C8  C  1.0000  0.66676  0.13802  0.13605  0.0000
C9  C  1.0000  0.79961  0.20575  0.13427  0.0000
C10  C  1.0000  0.86736  0.13908  0.12693  0.0000
C11  C  1.0000  0.99702  0.40047  0.14239  0.0000
C12  C  1.0000  0.06372  0.33236  0.13528  0.0000
C13  C  1.0000  0.19534  0.39366  0.14304  0.0000
C14  C  1.0000  0.25887  0.32177  0.14112  0.0000
C15  C  1.0000  0.45287  0.31872  0.14966  0.0000
C16  C  1.0000  0.65629  0.33419  0.15024  0.0000
C17  C  1.0000  0.79269  0.40521  0.15021  0.0000
C18  C  1.0000  0.86267  0.33849  0.14175  0.0000
C19  C  1.0000  0.00023  0.60092  0.14955  0.0000
C20  C  1.0000  0.06770  0.53269  0.14887  0.0000
C21  C  1.0000  0.20320  0.59349  0.15218  0.0000
C22  C  1.0000  0.86468  0.54022  0.15339  0.0000
C23  C  1.0000  0.00375  0.80123  0.13705  0.0000
C24  C  1.0000  0.07064  0.73319  0.14356  0.0000
C25  C  1.0000  0.20499  0.79524  0.14240  0.0000
C26  C  1.0000  0.27498  0.72849  0.15043  0.0000
C27  C  1.0000  0.41131  0.79949  0.15140  0.0000
C28  C  1.0000  0.61449  0.81595  0.15221  0.0000
C29  C  1.0000  0.80933  0.81253  0.14404  0.0000
C30  C  1.0000  0.87228  0.73986  0.14590  0.0000
C31  C  1.0000  0.00266  0.00079  0.12123  0.0000
C32  C  1.0000  0.06769  0.93189  0.12615  0.0000
C33  C  1.0000  0.19999  0.99429  0.12694  0.0000
C34  C  1.0000  0.26792  0.92796  0.13460  0.0000
C35  C  1.0000  0.40072  0.99576  0.13609  0.0000
C36  C  1.0000  0.47020  0.93145  0.14136  0.0000
C37  C  1.0000  0.60319  0.00522  0.13676  0.0000
C38  C  1.0000  0.67346  0.94296  0.13636  0.0000
C39  C  1.0000  0.80486  0.00751  0.12835  0.0000
C40  C  1.0000  0.87191  0.93982  0.12832  0.0000
N1  N  1.0000  0.58025  0.38819  0.16076  0.0000
N2  N  1.0000  0.80558  0.61146  0.15740  0.0000
N3  N  1.0000  0.68478  0.75909  0.16140  0.0000
N4  N  1.0000  0.38361  0.37738  0.15869  0.0000
N5  N  1.0000  0.26226  0.52180  0.15431  0.0000
N6  N  1.0000  0.48702  0.74473  0.16310  0.0000
Mo1  Mo  1.0000  0.44369  0.55816  0.18156  0.0000
Nb1  Nb  1.0000  0.61845  0.57556  0.18602  0.0000
