data_CNMoNi
_audit_creation_method           'pos2cif.pl'
_cell_length_a               12.3170003891
_cell_length_b               12.3170003891315
_cell_length_c               20
_cell_angle_alpha            90
_cell_angle_beta             90
_cell_angle_gamma            120.010002136348
_symmetry_space_group_H-M        'P1'
_symmetry_Int_Tables_number      '1'
_symmetry_cell_setting           'triclinic'
loop_
_symmetry_equiv_pos_as_xyz
x,y,z

loop_
_atom_site_label
_atom_site_type_symbol
_atom_site_occupancy
_atom_site_fract_x
_atom_site_fract_y
_atom_site_fract_z
_atom_site_U_iso_or_equiv
C1  C  1.0000  0.99852  0.19952  0.14230  0.0000
C2  C  1.0000  0.06315  0.13078  0.14208  0.0000
C3  C  1.0000  0.19498  0.19406  0.14208  0.0000
C4  C  1.0000  0.26196  0.12728  0.14213  0.0000
C5  C  1.0000  0.39392  0.19397  0.14244  0.0000
C6  C  1.0000  0.46439  0.13187  0.14267  0.0000
C7  C  1.0000  0.59734  0.20320  0.14305  0.0000
C8  C  1.0000  0.66638  0.13779  0.14295  0.0000
C9  C  1.0000  0.79920  0.20425  0.14288  0.0000
C10  C  1.0000  0.86651  0.13690  0.14256  0.0000
C11  C  1.0000  0.99730  0.40004  0.14301  0.0000
C12  C  1.0000  0.06358  0.33157  0.14258  0.0000
C13  C  1.0000  0.19570  0.39444  0.14286  0.0000
C14  C  1.0000  0.26055  0.32486  0.14267  0.0000
C15  C  1.0000  0.45574  0.32507  0.14319  0.0000
C16  C  1.0000  0.65816  0.33689  0.14353  0.0000
C17  C  1.0000  0.79419  0.40537  0.14353  0.0000
C18  C  1.0000  0.86323  0.33772  0.14313  0.0000
C19  C  1.0000  0.00217  0.60084  0.14332  0.0000
C20  C  1.0000  0.06924  0.53287  0.14328  0.0000
C21  C  1.0000  0.20448  0.59405  0.14355  0.0000
C22  C  1.0000  0.86685  0.53962  0.14358  0.0000
C23  C  1.0000  0.00293  0.80089  0.14297  0.0000
C24  C  1.0000  0.07015  0.73313  0.14310  0.0000
C25  C  1.0000  0.20395  0.79631  0.14303  0.0000
C26  C  1.0000  0.27287  0.72913  0.14351  0.0000
C27  C  1.0000  0.40769  0.80304  0.14366  0.0000
C28  C  1.0000  0.60966  0.81007  0.14385  0.0000
C29  C  1.0000  0.80109  0.80260  0.14351  0.0000
C30  C  1.0000  0.87040  0.73599  0.14344  0.0000
C31  C  1.0000  -0.00045  -0.00139  0.14234  0.0000
C32  C  1.0000  0.06670  0.93222  0.14246  0.0000
C33  C  1.0000  0.19903  0.99585  0.14228  0.0000
C34  C  1.0000  0.26743  0.92997  0.14262  0.0000
C35  C  1.0000  0.40015  0.99903  0.14269  0.0000
C36  C  1.0000  0.46928  0.93507  0.14308  0.0000
C37  C  1.0000  0.60239  0.00488  0.14302  0.0000
C38  C  1.0000  0.67214  0.94089  0.14313  0.0000
C39  C  1.0000  0.80350  0.00504  0.14275  0.0000
C40  C  1.0000  0.86747  0.93488  0.14281  0.0000
N1  N  1.0000  0.58415  0.39400  0.14392  0.0000
N2  N  1.0000  0.80697  0.60816  0.14377  0.0000
N3  N  1.0000  0.67029  0.73898  0.14416  0.0000
N4  N  1.0000  0.39039  0.38866  0.14360  0.0000
N5  N  1.0000  0.26569  0.52352  0.14374  0.0000
N6  N  1.0000  0.48066  0.74729  0.14453  0.0000
Mo1  Mo  1.0000  0.45983  0.57907  0.14601  0.0000
Ni1  Ni  1.0000  0.63510  0.56089  0.14458  0.0000
