data_CNMoOs
_audit_creation_method           'pos2cif.pl'
_cell_length_a               12.3170003891
_cell_length_b               12.3170003891315
_cell_length_c               20
_cell_angle_alpha            90
_cell_angle_beta             90
_cell_angle_gamma            120.010002136348
_symmetry_space_group_H-M        'P1'
_symmetry_Int_Tables_number      '1'
_symmetry_cell_setting           'triclinic'
loop_
_symmetry_equiv_pos_as_xyz
x,y,z

loop_
_atom_site_label
_atom_site_type_symbol
_atom_site_occupancy
_atom_site_fract_x
_atom_site_fract_y
_atom_site_fract_z
_atom_site_U_iso_or_equiv
C1  C  1.0000  0.99948  0.20126  0.13619  0.0000
C2  C  1.0000  0.06515  0.13300  0.13565  0.0000
C3  C  1.0000  0.19480  0.19350  0.14771  0.0000
C4  C  1.0000  0.26092  0.12531  0.14800  0.0000
C5  C  1.0000  0.39224  0.19013  0.15352  0.0000
C6  C  1.0000  0.46390  0.12916  0.14686  0.0000
C7  C  1.0000  0.59677  0.20204  0.14552  0.0000
C8  C  1.0000  0.66641  0.13766  0.13883  0.0000
C9  C  1.0000  0.79931  0.20555  0.13680  0.0000
C10  C  1.0000  0.86761  0.13938  0.13119  0.0000
C11  C  1.0000  0.99669  0.40055  0.14467  0.0000
C12  C  1.0000  0.06347  0.33216  0.14471  0.0000
C13  C  1.0000  0.19483  0.39379  0.15400  0.0000
C14  C  1.0000  0.25753  0.32203  0.15974  0.0000
C15  C  1.0000  0.45165  0.31920  0.16182  0.0000
C16  C  1.0000  0.65639  0.33526  0.14806  0.0000
C17  C  1.0000  0.79270  0.40644  0.14480  0.0000
C18  C  1.0000  0.86264  0.33887  0.14205  0.0000
C19  C  1.0000  0.00087  0.60123  0.14320  0.0000
C20  C  1.0000  0.06827  0.53324  0.14696  0.0000
C21  C  1.0000  0.20361  0.59335  0.15076  0.0000
C22  C  1.0000  0.86520  0.54091  0.14303  0.0000
C23  C  1.0000  0.00487  0.80201  0.13273  0.0000
C24  C  1.0000  0.07119  0.73338  0.13955  0.0000
C25  C  1.0000  0.20509  0.79525  0.14226  0.0000
C26  C  1.0000  0.27485  0.72807  0.14742  0.0000
C27  C  1.0000  0.41057  0.79922  0.14592  0.0000
C28  C  1.0000  0.61289  0.81136  0.13396  0.0000
C29  C  1.0000  0.80808  0.81005  0.12596  0.0000
C30  C  1.0000  0.87320  0.73984  0.13172  0.0000
C31  C  1.0000  0.00366  0.00235  0.12847  0.0000
C32  C  1.0000  0.06882  0.93365  0.13187  0.0000
C33  C  1.0000  0.19988  0.99517  0.13974  0.0000
C34  C  1.0000  0.26824  0.92859  0.14162  0.0000
C35  C  1.0000  0.40077  0.99631  0.14299  0.0000
C36  C  1.0000  0.47027  0.93169  0.14090  0.0000
C37  C  1.0000  0.60341  0.00479  0.13640  0.0000
C38  C  1.0000  0.67339  0.94229  0.12935  0.0000
C39  C  1.0000  0.80513  0.00786  0.12551  0.0000
C40  C  1.0000  0.87215  0.94039  0.12408  0.0000
N1  N  1.0000  0.57957  0.39013  0.15311  0.0000
N2  N  1.0000  0.80608  0.61195  0.13953  0.0000
N3  N  1.0000  0.67835  0.74829  0.12893  0.0000
N4  N  1.0000  0.38514  0.38152  0.17357  0.0000
N5  N  1.0000  0.26395  0.52306  0.15756  0.0000
N6  N  1.0000  0.48672  0.74341  0.15123  0.0000
Mo1  Mo  1.0000  0.45448  0.57049  0.18226  0.0000
Os1  Os  1.0000  0.61581  0.56603  0.14120  0.0000
