data_CNMoPd
_audit_creation_method           'pos2cif.pl'
_cell_length_a               12.3170003891
_cell_length_b               12.3170003891315
_cell_length_c               20
_cell_angle_alpha            90
_cell_angle_beta             90
_cell_angle_gamma            120.010002136348
_symmetry_space_group_H-M        'P1'
_symmetry_Int_Tables_number      '1'
_symmetry_cell_setting           'triclinic'
loop_
_symmetry_equiv_pos_as_xyz
x,y,z

loop_
_atom_site_label
_atom_site_type_symbol
_atom_site_occupancy
_atom_site_fract_x
_atom_site_fract_y
_atom_site_fract_z
_atom_site_U_iso_or_equiv
C1  C  1.0000  0.99936  0.20054  0.13743  0.0000
C2  C  1.0000  0.06508  0.13252  0.13667  0.0000
C3  C  1.0000  0.19566  0.19434  0.14617  0.0000
C4  C  1.0000  0.26185  0.12664  0.14609  0.0000
C5  C  1.0000  0.39332  0.19205  0.15159  0.0000
C6  C  1.0000  0.46438  0.13047  0.14607  0.0000
C7  C  1.0000  0.59738  0.20206  0.14567  0.0000
C8  C  1.0000  0.66665  0.13750  0.13969  0.0000
C9  C  1.0000  0.79950  0.20470  0.13840  0.0000
C10  C  1.0000  0.86739  0.13821  0.13382  0.0000
C11  C  1.0000  0.99730  0.40024  0.14438  0.0000
C12  C  1.0000  0.06382  0.33181  0.14458  0.0000
C13  C  1.0000  0.19510  0.39357  0.15359  0.0000
C14  C  1.0000  0.26001  0.32377  0.15780  0.0000
C15  C  1.0000  0.45448  0.32212  0.16058  0.0000
C16  C  1.0000  0.65728  0.33559  0.14883  0.0000
C17  C  1.0000  0.79372  0.40560  0.14405  0.0000
C18  C  1.0000  0.86318  0.33822  0.14228  0.0000
C19  C  1.0000  0.00244  0.60114  0.14109  0.0000
C20  C  1.0000  0.06899  0.53314  0.14597  0.0000
C21  C  1.0000  0.20384  0.59421  0.15047  0.0000
C22  C  1.0000  0.86691  0.54024  0.13962  0.0000
C23  C  1.0000  0.00452  0.80170  0.13298  0.0000
C24  C  1.0000  0.07117  0.73341  0.13824  0.0000
C25  C  1.0000  0.20501  0.79611  0.14117  0.0000
C26  C  1.0000  0.27419  0.72884  0.14632  0.0000
C27  C  1.0000  0.40961  0.80049  0.14445  0.0000
C28  C  1.0000  0.61077  0.80983  0.13578  0.0000
C29  C  1.0000  0.80467  0.80671  0.12832  0.0000
C30  C  1.0000  0.87229  0.73748  0.13051  0.0000
C31  C  1.0000  0.00239  0.00107  0.13103  0.0000
C32  C  1.0000  0.06835  0.93331  0.13329  0.0000
C33  C  1.0000  0.19994  0.99588  0.13917  0.0000
C34  C  1.0000  0.26814  0.92947  0.14052  0.0000
C35  C  1.0000  0.40072  0.99749  0.14174  0.0000
C36  C  1.0000  0.46979  0.93292  0.13988  0.0000
C37  C  1.0000  0.60304  0.00457  0.13707  0.0000
C38  C  1.0000  0.67266  0.94148  0.13202  0.0000
C39  C  1.0000  0.80431  0.00632  0.12942  0.0000
C40  C  1.0000  0.87052  0.93808  0.12793  0.0000
N1  N  1.0000  0.58182  0.38986  0.15595  0.0000
N2  N  1.0000  0.80916  0.60978  0.13324  0.0000
N3  N  1.0000  0.67478  0.74596  0.13110  0.0000
N4  N  1.0000  0.38747  0.38431  0.17170  0.0000
N5  N  1.0000  0.26310  0.52298  0.15905  0.0000
N6  N  1.0000  0.48398  0.74451  0.14995  0.0000
Mo1  Mo  1.0000  0.44344  0.57347  0.18636  0.0000
Pd1  Pd  1.0000  0.62358  0.56645  0.13992  0.0000
