data_CNMoPt
_audit_creation_method           'pos2cif.pl'
_cell_length_a               12.3170003891
_cell_length_b               12.3170003891315
_cell_length_c               20
_cell_angle_alpha            90
_cell_angle_beta             90
_cell_angle_gamma            120.010002136348
_symmetry_space_group_H-M        'P1'
_symmetry_Int_Tables_number      '1'
_symmetry_cell_setting           'triclinic'
loop_
_symmetry_equiv_pos_as_xyz
x,y,z

loop_
_atom_site_label
_atom_site_type_symbol
_atom_site_occupancy
_atom_site_fract_x
_atom_site_fract_y
_atom_site_fract_z
_atom_site_U_iso_or_equiv
C1  C  1.0000  0.99920  0.20066  0.13631  0.0000
C2  C  1.0000  0.06527  0.13292  0.13516  0.0000
C3  C  1.0000  0.19548  0.19432  0.14560  0.0000
C4  C  1.0000  0.26173  0.12652  0.14601  0.0000
C5  C  1.0000  0.39304  0.19179  0.15245  0.0000
C6  C  1.0000  0.46433  0.13025  0.14687  0.0000
C7  C  1.0000  0.59722  0.20229  0.14641  0.0000
C8  C  1.0000  0.66647  0.13738  0.14020  0.0000
C9  C  1.0000  0.79925  0.20480  0.13826  0.0000
C10  C  1.0000  0.86719  0.13832  0.13299  0.0000
C11  C  1.0000  0.99679  0.40023  0.14410  0.0000
C12  C  1.0000  0.06330  0.33174  0.14409  0.0000
C13  C  1.0000  0.19436  0.39333  0.15361  0.0000
C14  C  1.0000  0.25886  0.32319  0.15815  0.0000
C15  C  1.0000  0.45306  0.32145  0.16160  0.0000
C16  C  1.0000  0.65706  0.33599  0.14908  0.0000
C17  C  1.0000  0.79328  0.40606  0.14415  0.0000
C18  C  1.0000  0.86276  0.33833  0.14213  0.0000
C19  C  1.0000  0.00231  0.60136  0.14064  0.0000
C20  C  1.0000  0.06863  0.53314  0.14574  0.0000
C21  C  1.0000  0.20347  0.59390  0.15063  0.0000
C22  C  1.0000  0.86677  0.54057  0.13966  0.0000
C23  C  1.0000  0.00548  0.80231  0.13140  0.0000
C24  C  1.0000  0.07166  0.73364  0.13740  0.0000
C25  C  1.0000  0.20540  0.79603  0.14089  0.0000
C26  C  1.0000  0.27443  0.72853  0.14669  0.0000
C27  C  1.0000  0.41001  0.79973  0.14535  0.0000
C28  C  1.0000  0.61104  0.80902  0.13632  0.0000
C29  C  1.0000  0.80647  0.80804  0.12722  0.0000
C30  C  1.0000  0.87365  0.73891  0.12951  0.0000
C31  C  1.0000  0.00310  0.00171  0.12908  0.0000
C32  C  1.0000  0.06906  0.93383  0.13149  0.0000
C33  C  1.0000  0.20039  0.99606  0.13837  0.0000
C34  C  1.0000  0.26851  0.92940  0.14038  0.0000
C35  C  1.0000  0.40100  -0.00279  0.14240  0.0000
C36  C  1.0000  0.47003  0.93231  0.14080  0.0000
C37  C  1.0000  0.60320  0.00423  0.13775  0.0000
C38  C  1.0000  0.67272  0.94087  0.13210  0.0000
C39  C  1.0000  0.80439  0.00645  0.12850  0.0000
C40  C  1.0000  0.87131  0.93899  0.12630  0.0000
N1  N  1.0000  0.58069  0.39047  0.15573  0.0000
N2  N  1.0000  0.80948  0.61110  0.13380  0.0000
N3  N  1.0000  0.67669  0.74616  0.13112  0.0000
N4  N  1.0000  0.38571  0.38318  0.17332  0.0000
N5  N  1.0000  0.26226  0.52252  0.15943  0.0000
N6  N  1.0000  0.48455  0.74332  0.15114  0.0000
Mo1  Mo  1.0000  0.44209  0.57128  0.18901  0.0000
Pt1  Pt  1.0000  0.62387  0.56734  0.14263  0.0000
