data_CNMoRe
_audit_creation_method           'pos2cif.pl'
_cell_length_a               12.3170003891
_cell_length_b               12.3170003891315
_cell_length_c               20
_cell_angle_alpha            90
_cell_angle_beta             90
_cell_angle_gamma            120.010002136348
_symmetry_space_group_H-M        'P1'
_symmetry_Int_Tables_number      '1'
_symmetry_cell_setting           'triclinic'
loop_
_symmetry_equiv_pos_as_xyz
x,y,z

loop_
_atom_site_label
_atom_site_type_symbol
_atom_site_occupancy
_atom_site_fract_x
_atom_site_fract_y
_atom_site_fract_z
_atom_site_U_iso_or_equiv
C1  C  1.0000  0.99908  0.20078  0.14426  0.0000
C2  C  1.0000  0.06474  0.13248  0.14312  0.0000
C3  C  1.0000  0.19442  0.19307  0.13024  0.0000
C4  C  1.0000  0.26078  0.12477  0.13027  0.0000
C5  C  1.0000  0.39262  0.18935  0.12671  0.0000
C6  C  1.0000  0.46384  0.12860  0.13620  0.0000
C7  C  1.0000  0.59688  0.20195  0.14002  0.0000
C8  C  1.0000  0.66644  0.13778  0.14748  0.0000
C9  C  1.0000  0.79932  0.20565  0.14856  0.0000
C10  C  1.0000  0.86779  0.13931  0.15251  0.0000
C11  C  1.0000  0.99670  0.40069  0.14053  0.0000
C12  C  1.0000  0.06293  0.33181  0.13714  0.0000
C13  C  1.0000  0.19483  0.39451  0.12851  0.0000
C14  C  1.0000  0.25849  0.32245  0.12024  0.0000
C15  C  1.0000  0.45261  0.31890  0.12084  0.0000
C16  C  1.0000  0.65612  0.33495  0.13951  0.0000
C17  C  1.0000  0.79223  0.40611  0.14345  0.0000
C18  C  1.0000  0.86218  0.33878  0.14406  0.0000
C19  C  1.0000  0.00056  0.60106  0.14511  0.0000
C20  C  1.0000  0.06749  0.53304  0.14019  0.0000
C21  C  1.0000  0.20315  0.59282  0.13719  0.0000
C22  C  1.0000  0.86504  0.54122  0.14690  0.0000
C23  C  1.0000  0.00514  0.80231  0.15347  0.0000
C24  C  1.0000  0.07109  0.73338  0.14720  0.0000
C25  C  1.0000  0.20537  0.79525  0.14340  0.0000
C26  C  1.0000  0.27532  0.72811  0.14078  0.0000
C27  C  1.0000  0.41114  0.79908  0.14357  0.0000
C28  C  1.0000  0.61272  0.81247  0.16081  0.0000
C29  C  1.0000  0.80832  0.81056  0.16668  0.0000
C30  C  1.0000  0.87317  0.73955  0.15897  0.0000
C31  C  1.0000  0.00355  0.00235  0.15287  0.0000
C32  C  1.0000  0.06889  0.93376  0.14994  0.0000
C33  C  1.0000  0.19965  0.99491  0.14032  0.0000
C34  C  1.0000  0.26811  0.92837  0.14117  0.0000
C35  C  1.0000  0.40087  0.99615  0.14091  0.0000
C36  C  1.0000  0.47041  0.93192  0.14641  0.0000
C37  C  1.0000  0.60344  0.00507  0.15164  0.0000
C38  C  1.0000  0.67376  0.94331  0.16111  0.0000
C39  C  1.0000  0.80588  0.00872  0.16153  0.0000
C40  C  1.0000  0.87283  0.94089  0.16267  0.0000
N1  N  1.0000  0.57888  0.39002  0.13570  0.0000
N2  N  1.0000  0.80647  0.61167  0.15311  0.0000
N3  N  1.0000  0.67821  0.74917  0.16925  0.0000
N4  N  1.0000  0.38676  0.38100  0.10875  0.0000
N5  N  1.0000  0.26211  0.52304  0.13038  0.0000
N6  N  1.0000  0.48792  0.74386  0.14258  0.0000
Mo1  Mo  1.0000  0.45842  0.57142  0.10932  0.0000
Re1  Re  1.0000  0.61037  0.56475  0.15639  0.0000
