data_CNMoRh
_audit_creation_method           'pos2cif.pl'
_cell_length_a               12.3170003891
_cell_length_b               12.3170003891315
_cell_length_c               20
_cell_angle_alpha            90
_cell_angle_beta             90
_cell_angle_gamma            120.010002136348
_symmetry_space_group_H-M        'P1'
_symmetry_Int_Tables_number      '1'
_symmetry_cell_setting           'triclinic'
loop_
_symmetry_equiv_pos_as_xyz
x,y,z

loop_
_atom_site_label
_atom_site_type_symbol
_atom_site_occupancy
_atom_site_fract_x
_atom_site_fract_y
_atom_site_fract_z
_atom_site_U_iso_or_equiv
C1  C  1.0000  0.99939  0.20085  0.13424  0.0000
C2  C  1.0000  0.06479  0.13250  0.13289  0.0000
C3  C  1.0000  0.19562  0.19425  0.13995  0.0000
C4  C  1.0000  0.26160  0.12643  0.14040  0.0000
C5  C  1.0000  0.39294  0.19193  0.14561  0.0000
C6  C  1.0000  0.46408  0.13018  0.14259  0.0000
C7  C  1.0000  0.59692  0.20164  0.14347  0.0000
C8  C  1.0000  0.66649  0.13730  0.13847  0.0000
C9  C  1.0000  0.79944  0.20496  0.13727  0.0000
C10  C  1.0000  0.86741  0.13867  0.13253  0.0000
C11  C  1.0000  0.99708  0.40022  0.14421  0.0000
C12  C  1.0000  0.06380  0.33207  0.14162  0.0000
C13  C  1.0000  0.19518  0.39359  0.14926  0.0000
C14  C  1.0000  0.25969  0.32379  0.15042  0.0000
C15  C  1.0000  0.45302  0.32140  0.15438  0.0000
C16  C  1.0000  0.65696  0.33468  0.14795  0.0000
C17  C  1.0000  0.79351  0.40563  0.14590  0.0000
C18  C  1.0000  0.86310  0.33842  0.14228  0.0000
C19  C  1.0000  0.00175  0.60102  0.14510  0.0000
C20  C  1.0000  0.06899  0.53302  0.14784  0.0000
C21  C  1.0000  0.20389  0.59366  0.15184  0.0000
C22  C  1.0000  0.86602  0.54026  0.14514  0.0000
C23  C  1.0000  0.00410  0.80158  0.13704  0.0000
C24  C  1.0000  0.07075  0.73321  0.14186  0.0000
C25  C  1.0000  0.20464  0.79566  0.14265  0.0000
C26  C  1.0000  0.27387  0.72831  0.14783  0.0000
C27  C  1.0000  0.40914  0.80084  0.14570  0.0000
C28  C  1.0000  0.61253  0.81109  0.13961  0.0000
C29  C  1.0000  0.80530  0.80759  0.13534  0.0000
C30  C  1.0000  0.87222  0.73821  0.13819  0.0000
C31  C  1.0000  0.00219  0.00090  0.13058  0.0000
C32  C  1.0000  0.06791  0.93299  0.13358  0.0000
C33  C  1.0000  0.19961  0.99537  0.13678  0.0000
C34  C  1.0000  0.26780  0.92895  0.13962  0.0000
C35  C  1.0000  0.40035  0.99719  0.14010  0.0000
C36  C  1.0000  0.46956  0.93277  0.13997  0.0000
C37  C  1.0000  0.60296  0.00463  0.13687  0.0000
C38  C  1.0000  0.67305  0.94183  0.13376  0.0000
C39  C  1.0000  0.80447  0.00663  0.13054  0.0000
C40  C  1.0000  0.87047  0.93830  0.13060  0.0000
N1  N  1.0000  0.58148  0.38883  0.15402  0.0000
N2  N  1.0000  0.80777  0.61084  0.14333  0.0000
N3  N  1.0000  0.67631  0.74691  0.13983  0.0000
N4  N  1.0000  0.38710  0.38529  0.16248  0.0000
N5  N  1.0000  0.26443  0.52214  0.15782  0.0000
N6  N  1.0000  0.48363  0.74494  0.15185  0.0000
Mo1  Mo  1.0000  0.45241  0.57673  0.17809  0.0000
Rh1  Rh  1.0000  0.62129  0.56295  0.15054  0.0000
