data_CNMoSc
_audit_creation_method           'pos2cif.pl'
_cell_length_a               12.3170003891
_cell_length_b               12.3170003891315
_cell_length_c               20
_cell_angle_alpha            90
_cell_angle_beta             90
_cell_angle_gamma            120.010002136348
_symmetry_space_group_H-M        'P1'
_symmetry_Int_Tables_number      '1'
_symmetry_cell_setting           'triclinic'
loop_
_symmetry_equiv_pos_as_xyz
x,y,z

loop_
_atom_site_label
_atom_site_type_symbol
_atom_site_occupancy
_atom_site_fract_x
_atom_site_fract_y
_atom_site_fract_z
_atom_site_U_iso_or_equiv
C1  C  1.0000  0.00041  0.20052  0.13890  0.0000
C2  C  1.0000  0.06537  0.13214  0.13841  0.0000
C3  C  1.0000  0.19817  0.19736  0.13642  0.0000
C4  C  1.0000  0.26309  0.12844  0.13691  0.0000
C5  C  1.0000  0.39536  0.19515  0.13555  0.0000
C6  C  1.0000  0.46493  0.13146  0.13849  0.0000
C7  C  1.0000  0.59823  0.20112  0.13907  0.0000
C8  C  1.0000  0.66708  0.13619  0.14129  0.0000
C9  C  1.0000  0.80014  0.20338  0.14046  0.0000
C10  C  1.0000  0.86763  0.13644  0.14006  0.0000
C11  C  1.0000  -0.00131  0.40014  0.14011  0.0000
C12  C  1.0000  0.06620  0.33282  0.13816  0.0000
C13  C  1.0000  0.19934  0.39758  0.13488  0.0000
C14  C  1.0000  0.26522  0.32952  0.13408  0.0000
C15  C  1.0000  0.46020  0.32712  0.13324  0.0000
C16  C  1.0000  0.66000  0.33398  0.14004  0.0000
C17  C  1.0000  0.79552  0.40427  0.14436  0.0000
C18  C  1.0000  0.86491  0.33710  0.14142  0.0000
C19  C  1.0000  0.00098  0.60021  0.14589  0.0000
C20  C  1.0000  0.06922  0.53311  0.14170  0.0000
C21  C  1.0000  0.20465  0.59500  0.13988  0.0000
C22  C  1.0000  0.86549  0.53831  0.14941  0.0000
C23  C  1.0000  0.00071  0.79980  0.14500  0.0000
C24  C  1.0000  0.06885  0.73289  0.14562  0.0000
C25  C  1.0000  0.20274  0.79652  0.14524  0.0000
C26  C  1.0000  0.27197  0.72924  0.14637  0.0000
C27  C  1.0000  0.40618  0.80186  0.15272  0.0000
C28  C  1.0000  0.60775  0.80953  0.15356  0.0000
C29  C  1.0000  0.79970  0.80133  0.14815  0.0000
C30  C  1.0000  0.86726  0.73377  0.14993  0.0000
C31  C  1.0000  -0.00005  -0.00093  0.14049  0.0000
C32  C  1.0000  0.06592  0.93173  0.14157  0.0000
C33  C  1.0000  0.19895  -0.00352  0.14031  0.0000
C34  C  1.0000  0.26697  0.93022  0.14312  0.0000
C35  C  1.0000  0.39989  -0.00142  0.14273  0.0000
C36  C  1.0000  0.46863  0.93387  0.14790  0.0000
C37  C  1.0000  0.60223  0.00372  0.14497  0.0000
C38  C  1.0000  0.67149  0.94006  0.14476  0.0000
C39  C  1.0000  0.80308  0.00409  0.14160  0.0000
C40  C  1.0000  0.86702  0.93362  0.14267  0.0000
N1  N  1.0000  0.58795  0.39191  0.13783  0.0000
N2  N  1.0000  0.80294  0.60526  0.15712  0.0000
N3  N  1.0000  0.66706  0.73790  0.15710  0.0000
N4  N  1.0000  0.39811  0.39710  0.12993  0.0000
N5  N  1.0000  0.26821  0.52713  0.13166  0.0000
N6  N  1.0000  0.47929  0.74499  0.16056  0.0000
Mo1  Mo  1.0000  0.46455  0.59252  0.12089  0.0000
Sc1  Sc  1.0000  0.60880  0.54661  0.19142  0.0000
