data_CNMoTa
_audit_creation_method           'pos2cif.pl'
_cell_length_a               12.3170003891
_cell_length_b               12.3170003891315
_cell_length_c               20
_cell_angle_alpha            90
_cell_angle_beta             90
_cell_angle_gamma            120.010002136348
_symmetry_space_group_H-M        'P1'
_symmetry_Int_Tables_number      '1'
_symmetry_cell_setting           'triclinic'
loop_
_symmetry_equiv_pos_as_xyz
x,y,z

loop_
_atom_site_label
_atom_site_type_symbol
_atom_site_occupancy
_atom_site_fract_x
_atom_site_fract_y
_atom_site_fract_z
_atom_site_U_iso_or_equiv
C1  C  1.0000  -0.00157  0.20021  0.13009  0.0000
C2  C  1.0000  0.06528  0.13326  0.12767  0.0000
C3  C  1.0000  0.19725  0.19709  0.13160  0.0000
C4  C  1.0000  0.26418  0.12962  0.13423  0.0000
C5  C  1.0000  0.39587  0.19587  0.14066  0.0000
C6  C  1.0000  0.46490  0.13113  0.14295  0.0000
C7  C  1.0000  0.59784  0.20312  0.14547  0.0000
C8  C  1.0000  0.66589  0.13623  0.14169  0.0000
C9  C  1.0000  0.79843  0.20344  0.13836  0.0000
C10  C  1.0000  0.86596  0.13637  0.13281  0.0000
C11  C  1.0000  0.99574  0.39983  0.13887  0.0000
C12  C  1.0000  0.06241  0.33201  0.13418  0.0000
C13  C  1.0000  0.19504  0.39675  0.13793  0.0000
C14  C  1.0000  0.26103  0.32756  0.13872  0.0000
C15  C  1.0000  0.45682  0.32717  0.14951  0.0000
C16  C  1.0000  0.65834  0.33688  0.15013  0.0000
C17  C  1.0000  0.79355  0.40548  0.14620  0.0000
C18  C  1.0000  0.86185  0.33699  0.14084  0.0000
C19  C  1.0000  0.00049  0.60117  0.14224  0.0000
C20  C  1.0000  0.06617  0.53244  0.14237  0.0000
C21  C  1.0000  0.20093  0.59307  0.14512  0.0000
C22  C  1.0000  0.86572  0.54028  0.14428  0.0000
C23  C  1.0000  0.00503  0.80199  0.13430  0.0000
C24  C  1.0000  0.07140  0.73386  0.13921  0.0000
C25  C  1.0000  0.20542  0.79651  0.14144  0.0000
C26  C  1.0000  0.27364  0.72809  0.14671  0.0000
C27  C  1.0000  0.40910  0.79617  0.14987  0.0000
C28  C  1.0000  0.61031  0.80637  0.14735  0.0000
C29  C  1.0000  0.80696  0.80685  0.13686  0.0000
C30  C  1.0000  0.87239  0.73746  0.13677  0.0000
C31  C  1.0000  0.00279  0.00125  0.12769  0.0000
C32  C  1.0000  0.06917  0.93377  0.13042  0.0000
C33  C  1.0000  0.20161  0.99753  0.13354  0.0000
C34  C  1.0000  0.26896  0.93024  0.13906  0.0000
C35  C  1.0000  0.40142  0.99717  0.14219  0.0000
C36  C  1.0000  0.46949  0.93005  0.14522  0.0000
C37  C  1.0000  0.60242  0.00234  0.14208  0.0000
C38  C  1.0000  0.67141  0.93783  0.13904  0.0000
C39  C  1.0000  0.80335  0.00428  0.13318  0.0000
C40  C  1.0000  0.87092  0.93757  0.13091  0.0000
N1  N  1.0000  0.58444  0.39628  0.15834  0.0000
N2  N  1.0000  0.80490  0.60904  0.14411  0.0000
N3  N  1.0000  0.67844  0.74429  0.14894  0.0000
N4  N  1.0000  0.38914  0.38987  0.15278  0.0000
N5  N  1.0000  0.26121  0.52446  0.14525  0.0000
N6  N  1.0000  0.48346  0.73687  0.15744  0.0000
Mo1  Mo  1.0000  0.43570  0.55613  0.19627  0.0000
Ta1  Ta  1.0000  0.63180  0.57894  0.19705  0.0000
