data_CNMoTc
_audit_creation_method           'pos2cif.pl'
_cell_length_a               12.3170003891
_cell_length_b               12.3170003891315
_cell_length_c               20
_cell_angle_alpha            90
_cell_angle_beta             90
_cell_angle_gamma            120.010002136348
_symmetry_space_group_H-M        'P1'
_symmetry_Int_Tables_number      '1'
_symmetry_cell_setting           'triclinic'
loop_
_symmetry_equiv_pos_as_xyz
x,y,z

loop_
_atom_site_label
_atom_site_type_symbol
_atom_site_occupancy
_atom_site_fract_x
_atom_site_fract_y
_atom_site_fract_z
_atom_site_U_iso_or_equiv
C1  C  1.0000  0.99902  0.20064  0.14106  0.0000
C2  C  1.0000  0.06443  0.13215  0.13974  0.0000
C3  C  1.0000  0.19480  0.19340  0.12881  0.0000
C4  C  1.0000  0.26107  0.12497  0.12938  0.0000
C5  C  1.0000  0.39294  0.18951  0.12716  0.0000
C6  C  1.0000  0.46379  0.12848  0.13623  0.0000
C7  C  1.0000  0.59680  0.20153  0.13995  0.0000
C8  C  1.0000  0.66642  0.13756  0.14638  0.0000
C9  C  1.0000  0.79932  0.20537  0.14641  0.0000
C10  C  1.0000  0.86781  0.13916  0.14922  0.0000
C11  C  1.0000  0.99677  0.40058  0.13928  0.0000
C12  C  1.0000  0.06312  0.33195  0.13544  0.0000
C13  C  1.0000  0.19541  0.39514  0.12843  0.0000
C14  C  1.0000  0.25956  0.32349  0.12125  0.0000
C15  C  1.0000  0.45385  0.31968  0.12378  0.0000
C16  C  1.0000  0.65614  0.33455  0.14044  0.0000
C17  C  1.0000  0.79238  0.40571  0.14339  0.0000
C18  C  1.0000  0.86228  0.33862  0.14270  0.0000
C19  C  1.0000  0.00044  0.60084  0.14508  0.0000
C20  C  1.0000  0.06751  0.53300  0.14015  0.0000
C21  C  1.0000  0.20313  0.59285  0.13808  0.0000
C22  C  1.0000  0.86483  0.54096  0.14677  0.0000
C23  C  1.0000  0.00429  0.80193  0.15170  0.0000
C24  C  1.0000  0.07052  0.73314  0.14677  0.0000
C25  C  1.0000  0.20489  0.79518  0.14374  0.0000
C26  C  1.0000  0.27477  0.72804  0.14259  0.0000
C27  C  1.0000  0.41046  0.79906  0.14660  0.0000
C28  C  1.0000  0.61298  0.81330  0.16309  0.0000
C29  C  1.0000  0.80700  0.80997  0.16522  0.0000
C30  C  1.0000  0.87197  0.73856  0.15748  0.0000
C31  C  1.0000  0.00283  0.00181  0.14910  0.0000
C32  C  1.0000  0.06827  0.93334  0.14729  0.0000
C33  C  1.0000  0.19936  0.99478  0.13881  0.0000
C34  C  1.0000  0.26778  0.92830  0.14095  0.0000
C35  C  1.0000  0.40055  0.99599  0.14111  0.0000
C36  C  1.0000  0.46999  0.93198  0.14756  0.0000
C37  C  1.0000  0.60324  0.00507  0.15142  0.0000
C38  C  1.0000  0.67404  0.94404  0.16032  0.0000
C39  C  1.0000  0.80586  0.00866  0.15855  0.0000
C40  C  1.0000  0.87226  0.94040  0.15938  0.0000
N1  N  1.0000  0.57943  0.38923  0.13874  0.0000
N2  N  1.0000  0.80605  0.61081  0.15256  0.0000
N3  N  1.0000  0.67788  0.75050  0.17127  0.0000
N4  N  1.0000  0.38869  0.38287  0.11346  0.0000
N5  N  1.0000  0.26260  0.52354  0.13104  0.0000
N6  N  1.0000  0.48655  0.74366  0.14819  0.0000
Mo1  Mo  1.0000  0.46371  0.57350  0.11611  0.0000
Tc1  Tc  1.0000  0.60925  0.56338  0.15978  0.0000
