data_CNMoTi
_audit_creation_method           'pos2cif.pl'
_cell_length_a               12.3170003891
_cell_length_b               12.3170003891315
_cell_length_c               20
_cell_angle_alpha            90
_cell_angle_beta             90
_cell_angle_gamma            120.010002136348
_symmetry_space_group_H-M        'P1'
_symmetry_Int_Tables_number      '1'
_symmetry_cell_setting           'triclinic'
loop_
_symmetry_equiv_pos_as_xyz
x,y,z

loop_
_atom_site_label
_atom_site_type_symbol
_atom_site_occupancy
_atom_site_fract_x
_atom_site_fract_y
_atom_site_fract_z
_atom_site_U_iso_or_equiv
C1  C  1.0000  -0.00026  0.20084  0.13852  0.0000
C2  C  1.0000  0.06517  0.13249  0.13656  0.0000
C3  C  1.0000  0.19593  0.19438  0.14396  0.0000
C4  C  1.0000  0.26229  0.12666  0.14239  0.0000
C5  C  1.0000  0.39436  0.19250  0.14690  0.0000
C6  C  1.0000  0.46452  0.12970  0.14323  0.0000
C7  C  1.0000  0.59735  0.20212  0.14473  0.0000
C8  C  1.0000  0.66659  0.13743  0.13840  0.0000
C9  C  1.0000  0.79955  0.20469  0.13925  0.0000
C10  C  1.0000  0.86772  0.13848  0.13396  0.0000
C11  C  1.0000  0.99693  0.39999  0.14853  0.0000
C12  C  1.0000  0.06401  0.33202  0.14701  0.0000
C13  C  1.0000  0.19582  0.39418  0.15502  0.0000
C14  C  1.0000  0.25981  0.32366  0.15481  0.0000
C15  C  1.0000  0.45637  0.32218  0.15669  0.0000
C16  C  1.0000  0.65721  0.33553  0.15101  0.0000
C17  C  1.0000  0.79318  0.40519  0.14896  0.0000
C18  C  1.0000  0.86304  0.33784  0.14594  0.0000
C19  C  1.0000  0.00031  0.60069  0.14544  0.0000
C20  C  1.0000  0.06796  0.53301  0.15019  0.0000
C21  C  1.0000  0.20343  0.59389  0.15372  0.0000
C22  C  1.0000  0.86401  0.53955  0.14624  0.0000
C23  C  1.0000  0.00289  0.80053  0.13457  0.0000
C24  C  1.0000  0.07003  0.73276  0.14090  0.0000
C25  C  1.0000  0.20445  0.79528  0.14166  0.0000
C26  C  1.0000  0.27417  0.72799  0.14632  0.0000
C27  C  1.0000  0.40987  0.79831  0.14047  0.0000
C28  C  1.0000  0.61117  0.81066  0.12797  0.0000
C29  C  1.0000  0.80506  0.80706  0.12576  0.0000
C30  C  1.0000  0.87003  0.73625  0.13316  0.0000
C31  C  1.0000  0.00246  0.00099  0.13110  0.0000
C32  C  1.0000  0.06762  0.93241  0.13306  0.0000
C33  C  1.0000  0.19983  0.99555  0.13738  0.0000
C34  C  1.0000  0.26791  0.92869  0.13895  0.0000
C35  C  1.0000  0.40063  0.99640  0.13931  0.0000
C36  C  1.0000  0.46961  0.93125  0.13657  0.0000
C37  C  1.0000  0.60303  0.00465  0.13326  0.0000
C38  C  1.0000  0.67289  0.94221  0.12693  0.0000
C39  C  1.0000  0.80484  0.00690  0.12710  0.0000
C40  C  1.0000  0.87117  0.93863  0.12674  0.0000
N1  N  1.0000  0.58391  0.39275  0.15868  0.0000
N2  N  1.0000  0.80285  0.60821  0.14261  0.0000
N3  N  1.0000  0.67588  0.74741  0.12270  0.0000
N4  N  1.0000  0.38872  0.38432  0.16571  0.0000
N5  N  1.0000  0.26327  0.52342  0.16269  0.0000
N6  N  1.0000  0.48459  0.74094  0.14057  0.0000
Mo1  Mo  1.0000  0.45198  0.56697  0.17652  0.0000
Ti1  Ti  1.0000  0.62287  0.58361  0.16978  0.0000
