data_CNMoV
_audit_creation_method           'pos2cif.pl'
_cell_length_a               12.3170003891
_cell_length_b               12.3170003891315
_cell_length_c               20
_cell_angle_alpha            90
_cell_angle_beta             90
_cell_angle_gamma            120.010002136348
_symmetry_space_group_H-M        'P1'
_symmetry_Int_Tables_number      '1'
_symmetry_cell_setting           'triclinic'
loop_
_symmetry_equiv_pos_as_xyz
x,y,z

loop_
_atom_site_label
_atom_site_type_symbol
_atom_site_occupancy
_atom_site_fract_x
_atom_site_fract_y
_atom_site_fract_z
_atom_site_U_iso_or_equiv
C1  C  1.0000  0.00118  0.20121  0.14176  0.0000
C2  C  1.0000  0.06616  0.13292  0.14144  0.0000
C3  C  1.0000  0.19904  0.19771  0.13889  0.0000
C4  C  1.0000  0.26294  0.12796  0.13927  0.0000
C5  C  1.0000  0.39503  0.19367  0.13759  0.0000
C6  C  1.0000  0.46491  0.13058  0.14089  0.0000
C7  C  1.0000  0.59827  0.20006  0.14082  0.0000
C8  C  1.0000  0.66752  0.13614  0.14427  0.0000
C9  C  1.0000  0.80073  0.20397  0.14332  0.0000
C10  C  1.0000  0.86854  0.13745  0.14380  0.0000
C11  C  1.0000  0.99926  0.40061  0.14097  0.0000
C12  C  1.0000  0.06684  0.33329  0.13998  0.0000
C13  C  1.0000  0.20007  0.39783  0.13602  0.0000
C14  C  1.0000  0.26673  0.32985  0.13508  0.0000
C15  C  1.0000  0.45946  0.32414  0.13246  0.0000
C16  C  1.0000  0.66042  0.33249  0.13934  0.0000
C17  C  1.0000  0.79534  0.40405  0.14315  0.0000
C18  C  1.0000  0.86512  0.33738  0.14237  0.0000
C19  C  1.0000  -0.00047  0.60024  0.14441  0.0000
C20  C  1.0000  0.06844  0.53337  0.14106  0.0000
C21  C  1.0000  0.20424  0.59516  0.13880  0.0000
C22  C  1.0000  0.86356  0.53851  0.14685  0.0000
C23  C  1.0000  0.00003  0.79980  0.14467  0.0000
C24  C  1.0000  0.06808  0.73282  0.14437  0.0000
C25  C  1.0000  0.20232  0.79632  0.14423  0.0000
C26  C  1.0000  0.27212  0.72965  0.14416  0.0000
C27  C  1.0000  0.40668  0.80241  0.15021  0.0000
C28  C  1.0000  0.60873  0.81086  0.15542  0.0000
C29  C  1.0000  0.79968  0.80256  0.14889  0.0000
C30  C  1.0000  0.86650  0.73447  0.14828  0.0000
C31  C  1.0000  0.00051  -0.00009  0.14309  0.0000
C32  C  1.0000  0.06574  0.93191  0.14297  0.0000
C33  C  1.0000  0.19863  0.99609  0.14200  0.0000
C34  C  1.0000  0.26657  0.92980  0.14388  0.0000
C35  C  1.0000  0.39975  -0.00169  0.14464  0.0000
C36  C  1.0000  0.46897  0.93456  0.14905  0.0000
C37  C  1.0000  0.60249  0.00398  0.14837  0.0000
C38  C  1.0000  0.67266  0.94109  0.15006  0.0000
C39  C  1.0000  0.80428  0.00560  0.14647  0.0000
C40  C  1.0000  0.86756  0.93496  0.14572  0.0000
N1  N  1.0000  0.58781  0.38878  0.13557  0.0000
N2  N  1.0000  0.80033  0.60573  0.15210  0.0000
N3  N  1.0000  0.66706  0.73798  0.15719  0.0000
N4  N  1.0000  0.39931  0.39505  0.12703  0.0000
N5  N  1.0000  0.26694  0.52676  0.13241  0.0000
N6  N  1.0000  0.48022  0.74716  0.15444  0.0000
Mo1  Mo  1.0000  0.46446  0.59092  0.11793  0.0000
V1  V  1.0000  0.60624  0.54509  0.16627  0.0000
