data_CNMoW
_audit_creation_method           'pos2cif.pl'
_cell_length_a               12.3170003891
_cell_length_b               12.3170003891315
_cell_length_c               20
_cell_angle_alpha            90
_cell_angle_beta             90
_cell_angle_gamma            120.010002136348
_symmetry_space_group_H-M        'P1'
_symmetry_Int_Tables_number      '1'
_symmetry_cell_setting           'triclinic'
loop_
_symmetry_equiv_pos_as_xyz
x,y,z

loop_
_atom_site_label
_atom_site_type_symbol
_atom_site_occupancy
_atom_site_fract_x
_atom_site_fract_y
_atom_site_fract_z
_atom_site_U_iso_or_equiv
C1  C  1.0000  -0.00056  0.20135  0.12711  0.0000
C2  C  1.0000  0.06473  0.13269  0.12238  0.0000
C3  C  1.0000  0.19572  0.19378  0.12789  0.0000
C4  C  1.0000  0.26237  0.12607  0.12890  0.0000
C5  C  1.0000  0.39367  0.19128  0.13632  0.0000
C6  C  1.0000  0.46412  0.12891  0.13752  0.0000
C7  C  1.0000  0.59713  0.20266  0.14185  0.0000
C8  C  1.0000  0.66669  0.13799  0.13800  0.0000
C9  C  1.0000  0.79937  0.20560  0.13574  0.0000
C10  C  1.0000  0.86720  0.13894  0.12942  0.0000
C11  C  1.0000  0.99682  0.40066  0.14105  0.0000
C12  C  1.0000  0.06367  0.33251  0.13521  0.0000
C13  C  1.0000  0.19577  0.39443  0.14060  0.0000
C14  C  1.0000  0.25867  0.32195  0.14129  0.0000
C15  C  1.0000  0.45201  0.31883  0.15111  0.0000
C16  C  1.0000  0.65636  0.33498  0.15002  0.0000
C17  C  1.0000  0.79257  0.40556  0.14823  0.0000
C18  C  1.0000  0.86260  0.33867  0.14108  0.0000
C19  C  1.0000  0.00006  0.60094  0.14774  0.0000
C20  C  1.0000  0.06765  0.53285  0.14692  0.0000
C21  C  1.0000  0.20330  0.59363  0.14825  0.0000
C22  C  1.0000  0.86450  0.54013  0.14995  0.0000
C23  C  1.0000  0.00395  0.80147  0.13657  0.0000
C24  C  1.0000  0.07074  0.73324  0.14206  0.0000
C25  C  1.0000  0.20500  0.79527  0.14148  0.0000
C26  C  1.0000  0.27500  0.72842  0.14842  0.0000
C27  C  1.0000  0.41115  0.79921  0.15179  0.0000
C28  C  1.0000  0.61433  0.81457  0.15394  0.0000
C29  C  1.0000  0.80927  0.81211  0.14398  0.0000
C30  C  1.0000  0.87232  0.74010  0.14344  0.0000
C31  C  1.0000  0.00251  0.00092  0.12314  0.0000
C32  C  1.0000  0.06791  0.93240  0.12739  0.0000
C33  C  1.0000  0.20013  0.99459  0.12846  0.0000
C34  C  1.0000  0.26814  0.92825  0.13534  0.0000
C35  C  1.0000  0.40081  0.99590  0.13740  0.0000
C36  C  1.0000  0.47032  0.93142  0.14302  0.0000
C37  C  1.0000  0.60339  0.00501  0.13935  0.0000
C38  C  1.0000  0.67360  0.94233  0.13903  0.0000
C39  C  1.0000  0.80487  0.00747  0.13117  0.0000
C40  C  1.0000  0.87172  0.93986  0.13038  0.0000
N1  N  1.0000  0.58027  0.39033  0.16082  0.0000
N2  N  1.0000  0.80441  0.61096  0.15049  0.0000
N3  N  1.0000  0.68432  0.75610  0.16250  0.0000
N4  N  1.0000  0.38238  0.37662  0.16082  0.0000
N5  N  1.0000  0.26446  0.52379  0.14579  0.0000
N6  N  1.0000  0.48691  0.74416  0.16438  0.0000
Mo1  Mo  1.0000  0.44445  0.55832  0.18339  0.0000
W1  W  1.0000  0.62025  0.57392  0.18081  0.0000
