data_CNMoZn
_audit_creation_method           'pos2cif.pl'
_cell_length_a               12.3170003891
_cell_length_b               12.3170003891315
_cell_length_c               20
_cell_angle_alpha            90
_cell_angle_beta             90
_cell_angle_gamma            120.010002136348
_symmetry_space_group_H-M        'P1'
_symmetry_Int_Tables_number      '1'
_symmetry_cell_setting           'triclinic'
loop_
_symmetry_equiv_pos_as_xyz
x,y,z

loop_
_atom_site_label
_atom_site_type_symbol
_atom_site_occupancy
_atom_site_fract_x
_atom_site_fract_y
_atom_site_fract_z
_atom_site_U_iso_or_equiv
C1  C  1.0000  -0.00011  0.20052  0.14190  0.0000
C2  C  1.0000  0.06392  0.13138  0.13936  0.0000
C3  C  1.0000  0.19674  0.19618  0.14137  0.0000
C4  C  1.0000  0.26219  0.12822  0.13698  0.0000
C5  C  1.0000  0.39453  0.19495  0.13834  0.0000
C6  C  1.0000  0.46427  0.13196  0.13567  0.0000
C7  C  1.0000  0.59767  0.20160  0.13864  0.0000
C8  C  1.0000  0.66701  0.13779  0.13626  0.0000
C9  C  1.0000  0.80001  0.20416  0.14072  0.0000
C10  C  1.0000  0.86770  0.13747  0.13888  0.0000
C11  C  1.0000  0.99880  0.40027  0.14843  0.0000
C12  C  1.0000  0.06586  0.33268  0.14657  0.0000
C13  C  1.0000  0.19883  0.39699  0.14981  0.0000
C14  C  1.0000  0.26444  0.32784  0.14830  0.0000
C15  C  1.0000  0.45939  0.32574  0.14776  0.0000
C16  C  1.0000  0.65859  0.33330  0.14802  0.0000
C17  C  1.0000  0.79502  0.40386  0.15096  0.0000
C18  C  1.0000  0.86440  0.33726  0.14710  0.0000
C19  C  1.0000  0.00183  0.60060  0.14734  0.0000
C20  C  1.0000  0.06969  0.53335  0.14847  0.0000
C21  C  1.0000  0.20522  0.59525  0.14815  0.0000
C22  C  1.0000  0.86681  0.53877  0.15256  0.0000
C23  C  1.0000  -0.00086  0.79939  0.13942  0.0000
C24  C  1.0000  0.06814  0.73299  0.14248  0.0000
C25  C  1.0000  0.20218  0.79664  0.13895  0.0000
C26  C  1.0000  0.27206  0.73005  0.14085  0.0000
C27  C  1.0000  0.40621  0.80284  0.13397  0.0000
C28  C  1.0000  0.60825  0.81312  0.13138  0.0000
C29  C  1.0000  0.79426  0.79861  0.13784  0.0000
C30  C  1.0000  0.86541  0.73283  0.14424  0.0000
C31  C  1.0000  -0.00196  -0.00182  0.13634  0.0000
C32  C  1.0000  0.06461  0.93135  0.13556  0.0000
C33  C  1.0000  0.19759  0.99604  0.13463  0.0000
C34  C  1.0000  0.26589  0.93011  0.13458  0.0000
C35  C  1.0000  0.39894  -0.00097  0.13310  0.0000
C36  C  1.0000  0.46813  0.93532  0.13170  0.0000
C37  C  1.0000  0.60183  0.00571  0.13216  0.0000
C38  C  1.0000  0.67192  0.94340  0.13238  0.0000
C39  C  1.0000  0.80313  0.00534  0.13514  0.0000
C40  C  1.0000  0.86479  0.93267  0.13581  0.0000
N1  N  1.0000  0.58561  0.38821  0.15511  0.0000
N2  N  1.0000  0.80638  0.60690  0.15681  0.0000
N3  N  1.0000  0.66268  0.73977  0.13441  0.0000
N4  N  1.0000  0.39548  0.39229  0.15345  0.0000
N5  N  1.0000  0.26747  0.52650  0.15334  0.0000
N6  N  1.0000  0.47953  0.74783  0.13223  0.0000
Mo1  Mo  1.0000  0.46562  0.58525  0.16025  0.0000
Zn1  Zn  1.0000  0.64094  0.55065  0.20417  0.0000
