data_CNMoZr
_audit_creation_method           'pos2cif.pl'
_cell_length_a               12.3170003891
_cell_length_b               12.3170003891315
_cell_length_c               20
_cell_angle_alpha            90
_cell_angle_beta             90
_cell_angle_gamma            120.010002136348
_symmetry_space_group_H-M        'P1'
_symmetry_Int_Tables_number      '1'
_symmetry_cell_setting           'triclinic'
loop_
_symmetry_equiv_pos_as_xyz
x,y,z

loop_
_atom_site_label
_atom_site_type_symbol
_atom_site_occupancy
_atom_site_fract_x
_atom_site_fract_y
_atom_site_fract_z
_atom_site_U_iso_or_equiv
C1  C  1.0000  -0.00020  0.20096  0.13274  0.0000
C2  C  1.0000  0.06581  0.13331  0.13031  0.0000
C3  C  1.0000  0.19693  0.19605  0.13666  0.0000
C4  C  1.0000  0.26319  0.12805  0.13669  0.0000
C5  C  1.0000  0.39496  0.19395  0.14215  0.0000
C6  C  1.0000  0.46462  0.13022  0.14112  0.0000
C7  C  1.0000  0.59767  0.20212  0.14340  0.0000
C8  C  1.0000  0.66650  0.13662  0.13776  0.0000
C9  C  1.0000  0.79924  0.20390  0.13718  0.0000
C10  C  1.0000  0.86726  0.13765  0.13070  0.0000
C11  C  1.0000  0.99672  0.39965  0.14574  0.0000
C12  C  1.0000  0.06399  0.33203  0.14156  0.0000
C13  C  1.0000  0.19552  0.39458  0.14946  0.0000
C14  C  1.0000  0.26072  0.32568  0.14738  0.0000
C15  C  1.0000  0.45673  0.32433  0.15243  0.0000
C16  C  1.0000  0.65765  0.33483  0.15017  0.0000
C17  C  1.0000  0.79396  0.40495  0.14909  0.0000
C18  C  1.0000  0.86320  0.33720  0.14412  0.0000
C19  C  1.0000  0.00074  0.60070  0.14643  0.0000
C20  C  1.0000  0.06751  0.53259  0.14937  0.0000
C21  C  1.0000  0.20247  0.59396  0.15405  0.0000
C22  C  1.0000  0.86535  0.53898  0.14842  0.0000
C23  C  1.0000  0.00351  0.80114  0.13535  0.0000
C24  C  1.0000  0.07054  0.73327  0.14216  0.0000
C25  C  1.0000  0.20430  0.79571  0.14287  0.0000
C26  C  1.0000  0.27346  0.72793  0.14877  0.0000
C27  C  1.0000  0.40943  0.79777  0.14501  0.0000
C28  C  1.0000  0.61019  0.80867  0.13430  0.0000
C29  C  1.0000  0.80553  0.80667  0.12919  0.0000
C30  C  1.0000  0.87090  0.73695  0.13650  0.0000
C31  C  1.0000  0.00274  0.00123  0.12735  0.0000
C32  C  1.0000  0.06804  0.93276  0.13071  0.0000
C33  C  1.0000  0.20049  0.99637  0.13417  0.0000
C34  C  1.0000  0.26818  0.92936  0.13843  0.0000
C35  C  1.0000  0.40068  0.99666  0.13922  0.0000
C36  C  1.0000  0.46934  0.93046  0.13917  0.0000
C37  C  1.0000  0.60262  0.00348  0.13484  0.0000
C38  C  1.0000  0.67189  0.94025  0.12947  0.0000
C39  C  1.0000  0.80413  0.00567  0.12642  0.0000
C40  C  1.0000  0.87125  0.93826  0.12600  0.0000
N1  N  1.0000  0.58412  0.39246  0.15762  0.0000
N2  N  1.0000  0.80479  0.60875  0.14824  0.0000
N3  N  1.0000  0.67564  0.74597  0.13073  0.0000
N4  N  1.0000  0.38930  0.38709  0.16061  0.0000
N5  N  1.0000  0.26135  0.52260  0.16209  0.0000
N6  N  1.0000  0.48390  0.73928  0.14818  0.0000
Mo1  Mo  1.0000  0.44149  0.56484  0.18902  0.0000
Zr1  Zr  1.0000  0.62869  0.58526  0.18856  0.0000
