data_CNNbNi
_audit_creation_method           'pos2cif.pl'
_cell_length_a               12.3170003891
_cell_length_b               12.3170003891315
_cell_length_c               20
_cell_angle_alpha            90
_cell_angle_beta             90
_cell_angle_gamma            120.010002136348
_symmetry_space_group_H-M        'P1'
_symmetry_Int_Tables_number      '1'
_symmetry_cell_setting           'triclinic'
loop_
_symmetry_equiv_pos_as_xyz
x,y,z

loop_
_atom_site_label
_atom_site_type_symbol
_atom_site_occupancy
_atom_site_fract_x
_atom_site_fract_y
_atom_site_fract_z
_atom_site_U_iso_or_equiv
C1  C  1.0000  0.99863  0.20000  0.14107  0.0000
C2  C  1.0000  0.06354  0.13142  0.14120  0.0000
C3  C  1.0000  0.19530  0.19506  0.14437  0.0000
C4  C  1.0000  0.26218  0.12817  0.14419  0.0000
C5  C  1.0000  0.39444  0.19510  0.14527  0.0000
C6  C  1.0000  0.46439  0.13194  0.14221  0.0000
C7  C  1.0000  0.59719  0.20315  0.14193  0.0000
C8  C  1.0000  0.66592  0.13697  0.13946  0.0000
C9  C  1.0000  0.79878  0.20374  0.14016  0.0000
C10  C  1.0000  0.86624  0.13653  0.13931  0.0000
C11  C  1.0000  0.99693  0.39991  0.14457  0.0000
C12  C  1.0000  0.06373  0.33203  0.14435  0.0000
C13  C  1.0000  0.19614  0.39549  0.14961  0.0000
C14  C  1.0000  0.26037  0.32605  0.14960  0.0000
C15  C  1.0000  0.45633  0.32622  0.14918  0.0000
C16  C  1.0000  0.65802  0.33722  0.14343  0.0000
C17  C  1.0000  0.79403  0.40546  0.14207  0.0000
C18  C  1.0000  0.86301  0.33754  0.14224  0.0000
C19  C  1.0000  0.00220  0.60099  0.14322  0.0000
C20  C  1.0000  0.06906  0.53294  0.14615  0.0000
C21  C  1.0000  0.20411  0.59421  0.14956  0.0000
C22  C  1.0000  0.86680  0.53984  0.14069  0.0000
C23  C  1.0000  0.00317  0.80122  0.14157  0.0000
C24  C  1.0000  0.07033  0.73340  0.14284  0.0000
C25  C  1.0000  0.20397  0.79667  0.14302  0.0000
C26  C  1.0000  0.27258  0.72877  0.14472  0.0000
C27  C  1.0000  0.40690  0.80074  0.14003  0.0000
C28  C  1.0000  0.60815  0.80679  0.13607  0.0000
C29  C  1.0000  0.80206  0.80294  0.13886  0.0000
C30  C  1.0000  0.87081  0.73620  0.13920  0.0000
C31  C  1.0000  -0.00000  -0.00079  0.14022  0.0000
C32  C  1.0000  0.06709  0.93281  0.14149  0.0000
C33  C  1.0000  0.19949  0.99672  0.14225  0.0000
C34  C  1.0000  0.26763  0.93024  0.14176  0.0000
C35  C  1.0000  0.40017  -0.00140  0.14053  0.0000
C36  C  1.0000  0.46860  0.93322  0.13830  0.0000
C37  C  1.0000  0.60195  0.00354  0.13749  0.0000
C38  C  1.0000  0.67122  0.93895  0.13663  0.0000
C39  C  1.0000  0.80286  0.00429  0.13785  0.0000
C40  C  1.0000  0.86761  0.93472  0.13889  0.0000
N1  N  1.0000  0.58432  0.39539  0.14597  0.0000
N2  N  1.0000  0.80722  0.60830  0.13666  0.0000
N3  N  1.0000  0.66988  0.73689  0.13643  0.0000
N4  N  1.0000  0.38997  0.38987  0.15613  0.0000
N5  N  1.0000  0.26624  0.52470  0.15650  0.0000
N6  N  1.0000  0.47907  0.74237  0.13938  0.0000
Nb1  Nb  1.0000  0.46442  0.58109  0.17656  0.0000
Ni1  Ni  1.0000  0.63398  0.56352  0.13876  0.0000
