data_CNNbRu
_audit_creation_method           'pos2cif.pl'
_cell_length_a               12.3170003891
_cell_length_b               12.3170003891315
_cell_length_c               20
_cell_angle_alpha            90
_cell_angle_beta             90
_cell_angle_gamma            120.010002136348
_symmetry_space_group_H-M        'P1'
_symmetry_Int_Tables_number      '1'
_symmetry_cell_setting           'triclinic'
loop_
_symmetry_equiv_pos_as_xyz
x,y,z

loop_
_atom_site_label
_atom_site_type_symbol
_atom_site_occupancy
_atom_site_fract_x
_atom_site_fract_y
_atom_site_fract_z
_atom_site_U_iso_or_equiv
C1  C  1.0000  -0.00055  0.20130  0.13785  0.0000
C2  C  1.0000  0.06503  0.13300  0.13732  0.0000
C3  C  1.0000  0.19523  0.19417  0.14788  0.0000
C4  C  1.0000  0.26125  0.12582  0.14803  0.0000
C5  C  1.0000  0.39277  0.19026  0.15321  0.0000
C6  C  1.0000  0.46392  0.12893  0.14629  0.0000
C7  C  1.0000  0.59676  0.20151  0.14484  0.0000
C8  C  1.0000  0.66628  0.13737  0.13854  0.0000
C9  C  1.0000  0.79922  0.20515  0.13758  0.0000
C10  C  1.0000  0.86757  0.13910  0.13294  0.0000
C11  C  1.0000  -0.00320  0.40049  0.14547  0.0000
C12  C  1.0000  0.06362  0.33235  0.14571  0.0000
C13  C  1.0000  0.19548  0.39511  0.15484  0.0000
C14  C  1.0000  0.25916  0.32341  0.15917  0.0000
C15  C  1.0000  0.45343  0.31974  0.16040  0.0000
C16  C  1.0000  0.65633  0.33489  0.14730  0.0000
C17  C  1.0000  0.79273  0.40572  0.14475  0.0000
C18  C  1.0000  0.86238  0.33845  0.14259  0.0000
C19  C  1.0000  0.00111  0.60108  0.14321  0.0000
C20  C  1.0000  0.06790  0.53308  0.14720  0.0000
C21  C  1.0000  0.20339  0.59323  0.15097  0.0000
C22  C  1.0000  0.86550  0.54091  0.14309  0.0000
C23  C  1.0000  0.00432  0.80183  0.13390  0.0000
C24  C  1.0000  0.07073  0.73334  0.13995  0.0000
C25  C  1.0000  0.20482  0.79551  0.14200  0.0000
C26  C  1.0000  0.27436  0.72819  0.14606  0.0000
C27  C  1.0000  0.40968  0.79865  0.14267  0.0000
C28  C  1.0000  0.61188  0.81123  0.13075  0.0000
C29  C  1.0000  0.80596  0.80876  0.12679  0.0000
C30  C  1.0000  0.87200  0.73835  0.13282  0.0000
C31  C  1.0000  0.00291  0.00201  0.13079  0.0000
C32  C  1.0000  0.06832  0.93350  0.13347  0.0000
C33  C  1.0000  0.19966  0.99541  0.14024  0.0000
C34  C  1.0000  0.26781  0.92864  0.14137  0.0000
C35  C  1.0000  0.40045  0.99618  0.14217  0.0000
C36  C  1.0000  0.46969  0.93177  0.13909  0.0000
C37  C  1.0000  0.60282  0.00451  0.13520  0.0000
C38  C  1.0000  0.67310  0.94240  0.12871  0.0000
C39  C  1.0000  0.80489  0.00763  0.12708  0.0000
C40  C  1.0000  0.87137  0.93964  0.12613  0.0000
N1  N  1.0000  0.58037  0.38962  0.15165  0.0000
N2  N  1.0000  0.80715  0.61116  0.14026  0.0000
N3  N  1.0000  0.67665  0.74803  0.12708  0.0000
N4  N  1.0000  0.38662  0.38193  0.17156  0.0000
N5  N  1.0000  0.26310  0.52391  0.15909  0.0000
N6  N  1.0000  0.48457  0.74248  0.14402  0.0000
Nb1  Nb  1.0000  0.46220  0.57542  0.18847  0.0000
Ru1  Ru  1.0000  0.61629  0.56598  0.14146  0.0000
