data_CNNbSc
_audit_creation_method           'pos2cif.pl'
_cell_length_a               12.3170003891
_cell_length_b               12.3170003891315
_cell_length_c               20
_cell_angle_alpha            90
_cell_angle_beta             90
_cell_angle_gamma            120.010002136348
_symmetry_space_group_H-M        'P1'
_symmetry_Int_Tables_number      '1'
_symmetry_cell_setting           'triclinic'
loop_
_symmetry_equiv_pos_as_xyz
x,y,z

loop_
_atom_site_label
_atom_site_type_symbol
_atom_site_occupancy
_atom_site_fract_x
_atom_site_fract_y
_atom_site_fract_z
_atom_site_U_iso_or_equiv
C1  C  1.0000  0.00089  0.20104  0.14157  0.0000
C2  C  1.0000  0.06561  0.13249  0.14175  0.0000
C3  C  1.0000  0.19826  0.19751  0.13981  0.0000
C4  C  1.0000  0.26316  0.12858  0.13964  0.0000
C5  C  1.0000  0.39529  0.19473  0.13687  0.0000
C6  C  1.0000  0.46490  0.13122  0.13881  0.0000
C7  C  1.0000  0.59831  0.20114  0.13855  0.0000
C8  C  1.0000  0.66730  0.13630  0.14141  0.0000
C9  C  1.0000  0.80032  0.20350  0.14105  0.0000
C10  C  1.0000  0.86788  0.13671  0.14205  0.0000
C11  C  1.0000  -0.00101  0.40036  0.14014  0.0000
C12  C  1.0000  0.06693  0.33331  0.13988  0.0000
C13  C  1.0000  0.20021  0.39815  0.13632  0.0000
C14  C  1.0000  0.26545  0.32973  0.13657  0.0000
C15  C  1.0000  0.46022  0.32648  0.13273  0.0000
C16  C  1.0000  0.66018  0.33385  0.13827  0.0000
C17  C  1.0000  0.79572  0.40438  0.14281  0.0000
C18  C  1.0000  0.86535  0.33738  0.14103  0.0000
C19  C  1.0000  0.00079  0.60023  0.14528  0.0000
C20  C  1.0000  0.06935  0.53338  0.14094  0.0000
C21  C  1.0000  0.20456  0.59564  0.13852  0.0000
C22  C  1.0000  0.86522  0.53819  0.14827  0.0000
C23  C  1.0000  0.00044  0.79977  0.14612  0.0000
C24  C  1.0000  0.06867  0.73291  0.14589  0.0000
C25  C  1.0000  0.20243  0.79660  0.14515  0.0000
C26  C  1.0000  0.27165  0.72924  0.14477  0.0000
C27  C  1.0000  0.40613  0.80169  0.15025  0.0000
C28  C  1.0000  0.60701  0.80924  0.15279  0.0000
C29  C  1.0000  0.79956  0.80126  0.14891  0.0000
C30  C  1.0000  0.86684  0.73349  0.15029  0.0000
C31  C  1.0000  -0.00005  -0.00075  0.14341  0.0000
C32  C  1.0000  0.06583  0.93183  0.14379  0.0000
C33  C  1.0000  0.19886  -0.00344  0.14239  0.0000
C34  C  1.0000  0.26690  0.93033  0.14378  0.0000
C35  C  1.0000  0.39977  -0.00154  0.14278  0.0000
C36  C  1.0000  0.46853  0.93364  0.14682  0.0000
C37  C  1.0000  0.60230  0.00379  0.14496  0.0000
C38  C  1.0000  0.67154  0.94029  0.14586  0.0000
C39  C  1.0000  0.80325  0.00445  0.14385  0.0000
C40  C  1.0000  0.86706  0.93375  0.14505  0.0000
N1  N  1.0000  0.58822  0.39197  0.13480  0.0000
N2  N  1.0000  0.80225  0.60479  0.15643  0.0000
N3  N  1.0000  0.66614  0.73702  0.15601  0.0000
N4  N  1.0000  0.39800  0.39618  0.13050  0.0000
N5  N  1.0000  0.26920  0.52801  0.12947  0.0000
N6  N  1.0000  0.47848  0.74402  0.15706  0.0000
Nb1  Nb  1.0000  0.46686  0.59375  0.10957  0.0000
Sc1  Sc  1.0000  0.60625  0.54455  0.18894  0.0000
