data_CNNbY
_audit_creation_method           'pos2cif.pl'
_cell_length_a               12.3170003891
_cell_length_b               12.3170003891315
_cell_length_c               20
_cell_angle_alpha            90
_cell_angle_beta             90
_cell_angle_gamma            120.010002136348
_symmetry_space_group_H-M        'P1'
_symmetry_Int_Tables_number      '1'
_symmetry_cell_setting           'triclinic'
loop_
_symmetry_equiv_pos_as_xyz
x,y,z

loop_
_atom_site_label
_atom_site_type_symbol
_atom_site_occupancy
_atom_site_fract_x
_atom_site_fract_y
_atom_site_fract_z
_atom_site_U_iso_or_equiv
C1  C  1.0000  -0.00099  0.19966  0.13451  0.0000
C2  C  1.0000  0.06607  0.13335  0.13474  0.0000
C3  C  1.0000  0.19863  0.19857  0.13734  0.0000
C4  C  1.0000  0.26485  0.13100  0.13711  0.0000
C5  C  1.0000  0.39719  0.19758  0.13928  0.0000
C6  C  1.0000  0.46532  0.13188  0.13992  0.0000
C7  C  1.0000  0.59845  0.20141  0.14138  0.0000
C8  C  1.0000  0.66635  0.13512  0.13899  0.0000
C9  C  1.0000  0.79913  0.20226  0.13729  0.0000
C10  C  1.0000  0.86636  0.13504  0.13530  0.0000
C11  C  1.0000  -0.00285  0.39950  0.13561  0.0000
C12  C  1.0000  0.06380  0.33167  0.13483  0.0000
C13  C  1.0000  0.19671  0.39734  0.13757  0.0000
C14  C  1.0000  0.26569  0.33108  0.14118  0.0000
C15  C  1.0000  0.46134  0.32950  0.14719  0.0000
C16  C  1.0000  0.65988  0.33434  0.14635  0.0000
C17  C  1.0000  0.79528  0.40378  0.14234  0.0000
C18  C  1.0000  0.86349  0.33581  0.13804  0.0000
C19  C  1.0000  0.00100  0.60086  0.13657  0.0000
C20  C  1.0000  0.06668  0.53274  0.13605  0.0000
C21  C  1.0000  0.20018  0.59535  0.13931  0.0000
C22  C  1.0000  0.86733  0.53846  0.13980  0.0000
C23  C  1.0000  0.00344  0.80199  0.13648  0.0000
C24  C  1.0000  0.07024  0.73411  0.13699  0.0000
C25  C  1.0000  0.20391  0.79777  0.13911  0.0000
C26  C  1.0000  0.27217  0.72973  0.14286  0.0000
C27  C  1.0000  0.40721  0.79871  0.14772  0.0000
C28  C  1.0000  0.60719  0.80514  0.14694  0.0000
C29  C  1.0000  0.80151  0.80280  0.14084  0.0000
C30  C  1.0000  0.87018  0.73583  0.13903  0.0000
C31  C  1.0000  0.00153  0.00060  0.13483  0.0000
C32  C  1.0000  0.06831  0.93389  0.13548  0.0000
C33  C  1.0000  0.20104  -0.00140  0.13632  0.0000
C34  C  1.0000  0.26819  0.93139  0.13840  0.0000
C35  C  1.0000  0.40083  -0.00157  0.13968  0.0000
C36  C  1.0000  0.46875  0.93182  0.14250  0.0000
C37  C  1.0000  0.60173  0.00182  0.14020  0.0000
C38  C  1.0000  0.66987  0.93653  0.13905  0.0000
C39  C  1.0000  0.80246  0.00272  0.13624  0.0000
C40  C  1.0000  0.86899  0.93539  0.13680  0.0000
N1  N  1.0000  0.58839  0.39323  0.15568  0.0000
N2  N  1.0000  0.80694  0.60658  0.14323  0.0000
N3  N  1.0000  0.67067  0.73959  0.14888  0.0000
N4  N  1.0000  0.39678  0.39594  0.15118  0.0000
N5  N  1.0000  0.26033  0.52646  0.14228  0.0000
N6  N  1.0000  0.47979  0.73999  0.15776  0.0000
Nb1  Nb  1.0000  0.41316  0.55862  0.20154  0.0000
Y1  Y  1.0000  0.65355  0.57713  0.21124  0.0000
