data_CNNbZn
_audit_creation_method           'pos2cif.pl'
_cell_length_a               12.3170003891
_cell_length_b               12.3170003891315
_cell_length_c               20
_cell_angle_alpha            90
_cell_angle_beta             90
_cell_angle_gamma            120.010002136348
_symmetry_space_group_H-M        'P1'
_symmetry_Int_Tables_number      '1'
_symmetry_cell_setting           'triclinic'
loop_
_symmetry_equiv_pos_as_xyz
x,y,z

loop_
_atom_site_label
_atom_site_type_symbol
_atom_site_occupancy
_atom_site_fract_x
_atom_site_fract_y
_atom_site_fract_z
_atom_site_U_iso_or_equiv
C1  C  1.0000  -0.00052  0.20048  0.14181  0.0000
C2  C  1.0000  0.06365  0.13160  0.13912  0.0000
C3  C  1.0000  0.19661  0.19693  0.14071  0.0000
C4  C  1.0000  0.26229  0.12902  0.13637  0.0000
C5  C  1.0000  0.39490  0.19608  0.13788  0.0000
C6  C  1.0000  0.46414  0.13225  0.13569  0.0000
C7  C  1.0000  0.59739  0.20169  0.13901  0.0000
C8  C  1.0000  0.66649  0.13734  0.13706  0.0000
C9  C  1.0000  0.79938  0.20358  0.14141  0.0000
C10  C  1.0000  0.86698  0.13686  0.13963  0.0000
C11  C  1.0000  -0.00163  0.40012  0.14803  0.0000
C12  C  1.0000  0.06552  0.33279  0.14624  0.0000
C13  C  1.0000  0.19861  0.39749  0.14980  0.0000
C14  C  1.0000  0.26393  0.32865  0.14764  0.0000
C15  C  1.0000  0.46051  0.32731  0.14713  0.0000
C16  C  1.0000  0.65846  0.33369  0.14769  0.0000
C17  C  1.0000  0.79506  0.40382  0.15033  0.0000
C18  C  1.0000  0.86411  0.33703  0.14699  0.0000
C19  C  1.0000  0.00189  0.60072  0.14575  0.0000
C20  C  1.0000  0.06945  0.53333  0.14726  0.0000
C21  C  1.0000  0.20461  0.59539  0.14723  0.0000
C22  C  1.0000  0.86715  0.53882  0.15120  0.0000
C23  C  1.0000  -0.00101  0.79946  0.13892  0.0000
C24  C  1.0000  0.06805  0.73307  0.14120  0.0000
C25  C  1.0000  0.20194  0.79686  0.13749  0.0000
C26  C  1.0000  0.27139  0.72977  0.13892  0.0000
C27  C  1.0000  0.40561  0.80194  0.13176  0.0000
C28  C  1.0000  0.60687  0.81155  0.13054  0.0000
C29  C  1.0000  0.79400  0.79800  0.13830  0.0000
C30  C  1.0000  0.86510  0.73222  0.14399  0.0000
C31  C  1.0000  -0.00240  -0.00189  0.13640  0.0000
C32  C  1.0000  0.06439  0.93149  0.13524  0.0000
C33  C  1.0000  0.19764  0.99676  0.13405  0.0000
C34  C  1.0000  0.26578  0.93047  0.13374  0.0000
C35  C  1.0000  0.39871  -0.00096  0.13284  0.0000
C36  C  1.0000  0.46757  0.93459  0.13132  0.0000
C37  C  1.0000  0.60130  0.00505  0.13276  0.0000
C38  C  1.0000  0.67081  0.94228  0.13362  0.0000
C39  C  1.0000  0.80226  0.00457  0.13641  0.0000
C40  C  1.0000  0.86429  0.93218  0.13646  0.0000
N1  N  1.0000  0.58620  0.38974  0.15462  0.0000
N2  N  1.0000  0.80637  0.60630  0.15591  0.0000
N3  N  1.0000  0.66213  0.73836  0.13462  0.0000
N4  N  1.0000  0.39547  0.39398  0.15316  0.0000
N5  N  1.0000  0.26765  0.52745  0.15480  0.0000
N6  N  1.0000  0.47792  0.74503  0.12762  0.0000
Nb1  Nb  1.0000  0.47125  0.58803  0.16900  0.0000
Zn1  Zn  1.0000  0.64881  0.54985  0.21425  0.0000
