data_CNAg
_audit_creation_method           'pos2cif.pl'
_cell_length_a               12.3170003891
_cell_length_b               12.3170003891315
_cell_length_c               20
_cell_angle_alpha            90
_cell_angle_beta             90
_cell_angle_gamma            120.010002136348
_symmetry_space_group_H-M        'P1'
_symmetry_Int_Tables_number      '1'
_symmetry_cell_setting           'triclinic'
loop_
_symmetry_equiv_pos_as_xyz
x,y,z

loop_
_atom_site_label
_atom_site_type_symbol
_atom_site_occupancy
_atom_site_fract_x
_atom_site_fract_y
_atom_site_fract_z
_atom_site_U_iso_or_equiv
C1  C  1.0000  -0.00107  0.20048  0.12938  0.0000
C2  C  1.0000  0.06530  0.13290  0.12674  0.0000
C3  C  1.0000  0.19823  0.19750  0.13071  0.0000
C4  C  1.0000  0.26421  0.12915  0.13095  0.0000
C5  C  1.0000  0.39569  0.19437  0.13620  0.0000
C6  C  1.0000  0.46477  0.13054  0.13627  0.0000
C7  C  1.0000  0.59759  0.20092  0.13981  0.0000
C8  C  1.0000  0.66653  0.13671  0.13601  0.0000
C9  C  1.0000  0.79923  0.20401  0.13495  0.0000
C10  C  1.0000  0.86676  0.13730  0.13035  0.0000
C11  C  1.0000  0.99686  0.40037  0.13836  0.0000
C12  C  1.0000  0.06363  0.33231  0.13448  0.0000
C13  C  1.0000  0.19671  0.39866  0.13922  0.0000
C14  C  1.0000  0.26593  0.32832  0.14161  0.0000
C15  C  1.0000  0.45877  0.32454  0.15075  0.0000
C16  C  1.0000  0.65708  0.33340  0.14926  0.0000
C17  C  1.0000  0.79367  0.40423  0.14641  0.0000
C18  C  1.0000  0.86210  0.33728  0.13944  0.0000
C19  C  1.0000  0.00072  0.60108  0.14269  0.0000
C20  C  1.0000  0.06606  0.53269  0.14196  0.0000
C21  C  1.0000  0.20061  0.59366  0.14394  0.0000
C22  C  1.0000  0.86637  0.54019  0.14643  0.0000
C23  C  1.0000  0.00277  0.80117  0.13562  0.0000
C24  C  1.0000  0.06989  0.73345  0.13916  0.0000
C25  C  1.0000  0.20477  0.79668  0.13959  0.0000
C26  C  1.0000  0.27340  0.72974  0.14580  0.0000
C27  C  1.0000  0.40978  0.80099  0.15006  0.0000
C28  C  1.0000  0.60958  0.81049  0.15152  0.0000
C29  C  1.0000  0.79963  0.80449  0.14293  0.0000
C30  C  1.0000  0.86961  0.73466  0.14207  0.0000
C31  C  1.0000  0.00095  0.00026  0.12722  0.0000
C32  C  1.0000  0.06759  0.93299  0.12984  0.0000
C33  C  1.0000  0.19995  0.99648  0.13046  0.0000
C34  C  1.0000  0.26761  0.92992  0.13510  0.0000
C35  C  1.0000  0.40035  0.99748  0.13586  0.0000
C36  C  1.0000  0.46936  0.93344  0.14036  0.0000
C37  C  1.0000  0.60223  0.00384  0.13699  0.0000
C38  C  1.0000  0.67153  0.94024  0.13700  0.0000
C39  C  1.0000  0.80269  0.00463  0.13130  0.0000
C40  C  1.0000  0.86806  0.93563  0.13164  0.0000
N1  N  1.0000  0.58429  0.38718  0.16102  0.0000
N2  N  1.0000  0.80803  0.60906  0.14888  0.0000
N3  N  1.0000  0.67439  0.74708  0.15679  0.0000
N4  N  1.0000  0.39094  0.38505  0.15753  0.0000
N5  N  1.0000  0.25870  0.52484  0.14324  0.0000
N6  N  1.0000  0.48393  0.74911  0.16312  0.0000
Ag1  Ag  1.0000  0.43575  0.56465  0.19534  0.0000
Ag2  Ag  1.0000  0.64549  0.56698  0.21756  0.0000
