data_CNAgAu
_audit_creation_method           'pos2cif.pl'
_cell_length_a               12.3170003891
_cell_length_b               12.3170003891315
_cell_length_c               20
_cell_angle_alpha            90
_cell_angle_beta             90
_cell_angle_gamma            120.010002136348
_symmetry_space_group_H-M        'P1'
_symmetry_Int_Tables_number      '1'
_symmetry_cell_setting           'triclinic'
loop_
_symmetry_equiv_pos_as_xyz
x,y,z

loop_
_atom_site_label
_atom_site_type_symbol
_atom_site_occupancy
_atom_site_fract_x
_atom_site_fract_y
_atom_site_fract_z
_atom_site_U_iso_or_equiv
C1  C  1.0000  0.99783  0.19938  0.14133  0.0000
C2  C  1.0000  0.06452  0.13258  0.14051  0.0000
C3  C  1.0000  0.19561  0.19497  0.14099  0.0000
C4  C  1.0000  0.26270  0.12783  0.14120  0.0000
C5  C  1.0000  0.39401  0.19192  0.14235  0.0000
C6  C  1.0000  0.46475  0.13009  0.14300  0.0000
C7  C  1.0000  0.59773  0.20144  0.14366  0.0000
C8  C  1.0000  0.66645  0.13645  0.14342  0.0000
C9  C  1.0000  0.79872  0.20369  0.14301  0.0000
C10  C  1.0000  0.86637  0.13698  0.14191  0.0000
C11  C  1.0000  0.99525  0.39942  0.14347  0.0000
C12  C  1.0000  0.06056  0.33026  0.14243  0.0000
C13  C  1.0000  0.19190  0.39353  0.14288  0.0000
C14  C  1.0000  0.25936  0.32536  0.14238  0.0000
C15  C  1.0000  0.45478  0.32228  0.14349  0.0000
C16  C  1.0000  0.65850  0.33465  0.14420  0.0000
C17  C  1.0000  0.79388  0.40522  0.14424  0.0000
C18  C  1.0000  0.86204  0.33705  0.14358  0.0000
C19  C  1.0000  0.00175  0.60157  0.14403  0.0000
C20  C  1.0000  0.06504  0.53239  0.14403  0.0000
C21  C  1.0000  0.19894  0.59345  0.14417  0.0000
C22  C  1.0000  0.86788  0.54031  0.14425  0.0000
C23  C  1.0000  0.00714  0.80391  0.14237  0.0000
C24  C  1.0000  0.07214  0.73460  0.14330  0.0000
C25  C  1.0000  0.20543  0.79682  0.14332  0.0000
C26  C  1.0000  0.27349  0.72877  0.14419  0.0000
C27  C  1.0000  0.40922  0.79929  0.14439  0.0000
C28  C  1.0000  0.61162  0.81027  0.14421  0.0000
C29  C  1.0000  0.80875  0.80903  0.14299  0.0000
C30  C  1.0000  0.87600  0.74132  0.14316  0.0000
C31  C  1.0000  0.00315  0.00160  0.14059  0.0000
C32  C  1.0000  0.06978  0.93471  0.14105  0.0000
C33  C  1.0000  0.20119  0.99690  0.14126  0.0000
C34  C  1.0000  0.26886  0.93023  0.14248  0.0000
C35  C  1.0000  0.40118  0.99727  0.14305  0.0000
C36  C  1.0000  0.46990  0.93241  0.14379  0.0000
C37  C  1.0000  0.60289  0.00340  0.14352  0.0000
C38  C  1.0000  0.67347  0.94115  0.14319  0.0000
C39  C  1.0000  0.80481  0.00600  0.14203  0.0000
C40  C  1.0000  0.87211  0.93927  0.14160  0.0000
N1  N  1.0000  0.58226  0.38833  0.14460  0.0000
N2  N  1.0000  0.81450  0.61310  0.14416  0.0000
N3  N  1.0000  0.67888  0.74807  0.14443  0.0000
N4  N  1.0000  0.38904  0.38455  0.14369  0.0000
N5  N  1.0000  0.25272  0.52153  0.14397  0.0000
N6  N  1.0000  0.48497  0.74560  0.14508  0.0000
Ag1  Ag  1.0000  0.43262  0.56363  0.14560  0.0000
Au1  Au  1.0000  0.63233  0.56857  0.14537  0.0000
