data_CNAgCo
_audit_creation_method           'pos2cif.pl'
_cell_length_a               12.3170003891
_cell_length_b               12.3170003891315
_cell_length_c               20
_cell_angle_alpha            90
_cell_angle_beta             90
_cell_angle_gamma            120.010002136348
_symmetry_space_group_H-M        'P1'
_symmetry_Int_Tables_number      '1'
_symmetry_cell_setting           'triclinic'
loop_
_symmetry_equiv_pos_as_xyz
x,y,z

loop_
_atom_site_label
_atom_site_type_symbol
_atom_site_occupancy
_atom_site_fract_x
_atom_site_fract_y
_atom_site_fract_z
_atom_site_U_iso_or_equiv
C1  C  1.0000  0.99816  0.20010  0.14177  0.0000
C2  C  1.0000  0.06499  0.13298  0.14146  0.0000
C3  C  1.0000  0.19680  0.19623  0.14175  0.0000
C4  C  1.0000  0.26411  0.12909  0.14198  0.0000
C5  C  1.0000  0.39594  0.19382  0.14264  0.0000
C6  C  1.0000  0.46503  0.13020  0.14296  0.0000
C7  C  1.0000  0.59772  0.20228  0.14340  0.0000
C8  C  1.0000  0.66610  0.13646  0.14316  0.0000
C9  C  1.0000  0.79855  0.20397  0.14282  0.0000
C10  C  1.0000  0.86656  0.13741  0.14211  0.0000
C11  C  1.0000  0.99498  0.40013  0.14301  0.0000
C12  C  1.0000  0.06124  0.33137  0.14234  0.0000
C13  C  1.0000  0.19336  0.39641  0.14274  0.0000
C14  C  1.0000  0.26233  0.32734  0.14265  0.0000
C15  C  1.0000  0.45869  0.32573  0.14355  0.0000
C16  C  1.0000  0.65810  0.33634  0.14382  0.0000
C17  C  1.0000  0.79295  0.40543  0.14373  0.0000
C18  C  1.0000  0.86120  0.33741  0.14320  0.0000
C19  C  1.0000  -0.00171  0.60142  0.14352  0.0000
C20  C  1.0000  0.06317  0.53265  0.14342  0.0000
C21  C  1.0000  0.19789  0.59330  0.14366  0.0000
C22  C  1.0000  0.86341  0.54036  0.14373  0.0000
C23  C  1.0000  0.00467  0.80226  0.14260  0.0000
C24  C  1.0000  0.07070  0.73391  0.14312  0.0000
C25  C  1.0000  0.20501  0.79641  0.14321  0.0000
C26  C  1.0000  0.27333  0.72857  0.14389  0.0000
C27  C  1.0000  0.40984  0.79806  0.14426  0.0000
C28  C  1.0000  0.61248  0.80768  0.14401  0.0000
C29  C  1.0000  0.80576  0.80695  0.14297  0.0000
C30  C  1.0000  0.87273  0.73889  0.14305  0.0000
C31  C  1.0000  0.00268  0.00142  0.14162  0.0000
C32  C  1.0000  0.06907  0.93421  0.14193  0.0000
C33  C  1.0000  0.20100  0.99700  0.14204  0.0000
C34  C  1.0000  0.26857  0.92997  0.14271  0.0000
C35  C  1.0000  0.40124  0.99696  0.14300  0.0000
C36  C  1.0000  0.46999  0.93181  0.14352  0.0000
C37  C  1.0000  0.60290  0.00272  0.14326  0.0000
C38  C  1.0000  0.67362  0.93977  0.14299  0.0000
C39  C  1.0000  0.80460  0.00580  0.14220  0.0000
C40  C  1.0000  0.87085  0.93801  0.14209  0.0000
N1  N  1.0000  0.58703  0.39668  0.14425  0.0000
N2  N  1.0000  0.80404  0.61035  0.14377  0.0000
N3  N  1.0000  0.67690  0.74089  0.14399  0.0000
N4  N  1.0000  0.39141  0.38588  0.14392  0.0000
N5  N  1.0000  0.25366  0.52309  0.14358  0.0000
N6  N  1.0000  0.48546  0.74415  0.14527  0.0000
Ag1  Ag  1.0000  0.44186  0.56318  0.14652  0.0000
Co1  Co  1.0000  0.63805  0.56611  0.14474  0.0000
