data_CNAgHf
_audit_creation_method           'pos2cif.pl'
_cell_length_a               12.3170003891
_cell_length_b               12.3170003891315
_cell_length_c               20
_cell_angle_alpha            90
_cell_angle_beta             90
_cell_angle_gamma            120.010002136348
_symmetry_space_group_H-M        'P1'
_symmetry_Int_Tables_number      '1'
_symmetry_cell_setting           'triclinic'
loop_
_symmetry_equiv_pos_as_xyz
x,y,z

loop_
_atom_site_label
_atom_site_type_symbol
_atom_site_occupancy
_atom_site_fract_x
_atom_site_fract_y
_atom_site_fract_z
_atom_site_U_iso_or_equiv
C1  C  1.0000  -0.00082  0.20301  0.14812  0.0000
C2  C  1.0000  0.06623  0.13655  0.14865  0.0000
C3  C  1.0000  0.19976  0.20277  0.14810  0.0000
C4  C  1.0000  0.26169  0.12986  0.14881  0.0000
C5  C  1.0000  0.39317  0.19204  0.14954  0.0000
C6  C  1.0000  0.46264  0.12895  0.14996  0.0000
C7  C  1.0000  0.59598  0.20004  0.14969  0.0000
C8  C  1.0000  0.66475  0.13575  0.14941  0.0000
C9  C  1.0000  0.79756  0.20407  0.14845  0.0000
C10  C  1.0000  0.86605  0.13798  0.14911  0.0000
C11  C  1.0000  0.99535  0.40118  0.14510  0.0000
C12  C  1.0000  0.06428  0.33494  0.14606  0.0000
C13  C  1.0000  0.19924  0.40422  0.14485  0.0000
C14  C  1.0000  0.26892  0.33622  0.14629  0.0000
C15  C  1.0000  0.45709  0.32279  0.14915  0.0000
C16  C  1.0000  0.65786  0.33278  0.14841  0.0000
C17  C  1.0000  0.79176  0.40435  0.14530  0.0000
C18  C  1.0000  0.86110  0.33730  0.14622  0.0000
C19  C  1.0000  -0.00600  0.60090  0.14352  0.0000
C20  C  1.0000  0.06156  0.53331  0.14403  0.0000
C21  C  1.0000  0.19731  0.59395  0.14369  0.0000
C22  C  1.0000  0.85836  0.53942  0.14247  0.0000
C23  C  1.0000  -0.00137  0.80127  0.14614  0.0000
C24  C  1.0000  0.06558  0.73369  0.14459  0.0000
C25  C  1.0000  0.20065  0.79642  0.14556  0.0000
C26  C  1.0000  0.26959  0.72939  0.14463  0.0000
C27  C  1.0000  0.40636  0.79715  0.14593  0.0000
C28  C  1.0000  0.60243  0.80699  0.14795  0.0000
C29  C  1.0000  0.80080  0.80627  0.14775  0.0000
C30  C  1.0000  0.86500  0.73637  0.14457  0.0000
C31  C  1.0000  0.00085  0.00328  0.14895  0.0000
C32  C  1.0000  0.06468  0.93380  0.14813  0.0000
C33  C  1.0000  0.19733  0.99745  0.14837  0.0000
C34  C  1.0000  0.26483  0.93022  0.14767  0.0000
C35  C  1.0000  0.39783  0.99614  0.14885  0.0000
C36  C  1.0000  0.46660  0.93099  0.14824  0.0000
C37  C  1.0000  0.59976  0.00241  0.14938  0.0000
C38  C  1.0000  0.66929  0.93957  0.14964  0.0000
C39  C  1.0000  0.80165  0.00597  0.14990  0.0000
C40  C  1.0000  0.86794  0.93811  0.14929  0.0000
N1  N  1.0000  0.58568  0.39021  0.14923  0.0000
N2  N  1.0000  0.79445  0.60674  0.13958  0.0000
N3  N  1.0000  0.66968  0.74233  0.14732  0.0000
N4  N  1.0000  0.40084  0.39574  0.14637  0.0000
N5  N  1.0000  0.25986  0.52982  0.14318  0.0000
N6  N  1.0000  0.47775  0.73886  0.14533  0.0000
Ag1  Ag  1.0000  0.59039  0.55596  -0.01126  0.0000
Hf1  Hf  1.0000  0.58474  0.55361  0.12171  0.0000
