data_CNAgHg
_audit_creation_method           'pos2cif.pl'
_cell_length_a               12.3170003891
_cell_length_b               12.3170003891315
_cell_length_c               20
_cell_angle_alpha            90
_cell_angle_beta             90
_cell_angle_gamma            120.010002136348
_symmetry_space_group_H-M        'P1'
_symmetry_Int_Tables_number      '1'
_symmetry_cell_setting           'triclinic'
loop_
_symmetry_equiv_pos_as_xyz
x,y,z

loop_
_atom_site_label
_atom_site_type_symbol
_atom_site_occupancy
_atom_site_fract_x
_atom_site_fract_y
_atom_site_fract_z
_atom_site_U_iso_or_equiv
C1  C  1.0000  -0.00167  0.20202  0.13606  0.0000
C2  C  1.0000  0.06392  0.13377  0.13484  0.0000
C3  C  1.0000  0.19693  0.19822  0.13645  0.0000
C4  C  1.0000  0.26126  0.12860  0.13504  0.0000
C5  C  1.0000  0.39292  0.19259  0.13537  0.0000
C6  C  1.0000  0.46254  0.12977  0.13478  0.0000
C7  C  1.0000  0.59526  0.20090  0.13627  0.0000
C8  C  1.0000  0.66485  0.13770  0.13470  0.0000
C9  C  1.0000  0.79766  0.20481  0.13592  0.0000
C10  C  1.0000  0.86606  0.13889  0.13456  0.0000
C11  C  1.0000  0.99591  0.40125  0.14102  0.0000
C12  C  1.0000  0.06387  0.33450  0.13981  0.0000
C13  C  1.0000  0.19808  0.40271  0.14316  0.0000
C14  C  1.0000  0.26740  0.33134  0.14220  0.0000
C15  C  1.0000  0.45840  0.32409  0.14102  0.0000
C16  C  1.0000  0.65473  0.33491  0.14059  0.0000
C17  C  1.0000  0.79204  0.40485  0.14161  0.0000
C18  C  1.0000  0.86061  0.33832  0.13944  0.0000
C19  C  1.0000  -0.00188  0.60117  0.14276  0.0000
C20  C  1.0000  0.06461  0.53333  0.14299  0.0000
C21  C  1.0000  0.19956  0.59376  0.14401  0.0000
C22  C  1.0000  0.86320  0.54065  0.14314  0.0000
C23  C  1.0000  -0.00128  0.79996  0.13945  0.0000
C24  C  1.0000  0.06676  0.73325  0.14109  0.0000
C25  C  1.0000  0.20204  0.79614  0.13994  0.0000
C26  C  1.0000  0.27065  0.72959  0.14203  0.0000
C27  C  1.0000  0.40796  0.79953  0.14027  0.0000
C28  C  1.0000  0.60443  0.81056  0.13891  0.0000
C29  C  1.0000  0.79500  0.80286  0.14001  0.0000
C30  C  1.0000  0.86440  0.73161  0.14158  0.0000
C31  C  1.0000  -0.00136  0.00072  0.13459  0.0000
C32  C  1.0000  0.06427  0.93250  0.13629  0.0000
C33  C  1.0000  0.19658  0.99560  0.13548  0.0000
C34  C  1.0000  0.26498  0.92967  0.13671  0.0000
C35  C  1.0000  0.39779  0.99685  0.13527  0.0000
C36  C  1.0000  0.46741  0.93362  0.13603  0.0000
C37  C  1.0000  0.60009  0.00478  0.13388  0.0000
C38  C  1.0000  0.66975  0.94203  0.13367  0.0000
C39  C  1.0000  0.80138  0.00588  0.13358  0.0000
C40  C  1.0000  0.86561  0.93618  0.13511  0.0000
N1  N  1.0000  0.58465  0.39143  0.14412  0.0000
N2  N  1.0000  0.80195  0.60659  0.14387  0.0000
N3  N  1.0000  0.66886  0.74606  0.14365  0.0000
N4  N  1.0000  0.39346  0.38810  0.14666  0.0000
N5  N  1.0000  0.26065  0.52769  0.14565  0.0000
N6  N  1.0000  0.47819  0.74306  0.14276  0.0000
Ag1  Ag  1.0000  0.52918  0.56844  0.17535  0.0000
Hg1  Hg  1.0000  0.64738  0.55035  0.30025  0.0000
