data_CNAgIr
_audit_creation_method           'pos2cif.pl'
_cell_length_a               12.3170003891
_cell_length_b               12.3170003891315
_cell_length_c               20
_cell_angle_alpha            90
_cell_angle_beta             90
_cell_angle_gamma            120.010002136348
_symmetry_space_group_H-M        'P1'
_symmetry_Int_Tables_number      '1'
_symmetry_cell_setting           'triclinic'
loop_
_symmetry_equiv_pos_as_xyz
x,y,z

loop_
_atom_site_label
_atom_site_type_symbol
_atom_site_occupancy
_atom_site_fract_x
_atom_site_fract_y
_atom_site_fract_z
_atom_site_U_iso_or_equiv
C1  C  1.0000  0.99793  0.20025  0.14148  0.0000
C2  C  1.0000  0.06527  0.13360  0.14102  0.0000
C3  C  1.0000  0.19667  0.19588  0.14142  0.0000
C4  C  1.0000  0.26334  0.12804  0.14163  0.0000
C5  C  1.0000  0.39449  0.19148  0.14252  0.0000
C6  C  1.0000  0.46457  0.12891  0.14282  0.0000
C7  C  1.0000  0.59719  0.20049  0.14335  0.0000
C8  C  1.0000  0.66602  0.13590  0.14301  0.0000
C9  C  1.0000  0.79838  0.20419  0.14268  0.0000
C10  C  1.0000  0.86661  0.13804  0.14185  0.0000
C11  C  1.0000  0.99457  0.40027  0.14292  0.0000
C12  C  1.0000  0.06021  0.33101  0.14218  0.0000
C13  C  1.0000  0.19190  0.39561  0.14268  0.0000
C14  C  1.0000  0.26183  0.32669  0.14265  0.0000
C15  C  1.0000  0.45592  0.32204  0.14388  0.0000
C16  C  1.0000  0.65743  0.33360  0.14405  0.0000
C17  C  1.0000  0.79265  0.40545  0.14387  0.0000
C18  C  1.0000  0.86071  0.33769  0.14315  0.0000
C19  C  1.0000  -0.00085  0.60183  0.14353  0.0000
C20  C  1.0000  0.06292  0.53259  0.14337  0.0000
C21  C  1.0000  0.19704  0.59309  0.14364  0.0000
C22  C  1.0000  0.86494  0.54098  0.14389  0.0000
C23  C  1.0000  0.00695  0.80365  0.14245  0.0000
C24  C  1.0000  0.07174  0.73417  0.14305  0.0000
C25  C  1.0000  0.20584  0.79627  0.14313  0.0000
C26  C  1.0000  0.27371  0.72833  0.14391  0.0000
C27  C  1.0000  0.41037  0.79802  0.14431  0.0000
C28  C  1.0000  0.61330  0.80942  0.14428  0.0000
C29  C  1.0000  0.80883  0.81047  0.14311  0.0000
C30  C  1.0000  0.87617  0.74175  0.14314  0.0000
C31  C  1.0000  0.00397  0.00263  0.14117  0.0000
C32  C  1.0000  0.07012  0.93512  0.14155  0.0000
C33  C  1.0000  0.20132  0.99666  0.14165  0.0000
C34  C  1.0000  0.26885  0.92953  0.14249  0.0000
C35  C  1.0000  0.40130  0.99616  0.14280  0.0000
C36  C  1.0000  0.47019  0.93154  0.14341  0.0000
C37  C  1.0000  0.60310  0.00273  0.14312  0.0000
C38  C  1.0000  0.67434  0.94092  0.14292  0.0000
C39  C  1.0000  0.80514  0.00690  0.14198  0.0000
C40  C  1.0000  0.87251  0.94019  0.14185  0.0000
N1  N  1.0000  0.58397  0.39011  0.14490  0.0000
N2  N  1.0000  0.80920  0.61377  0.14407  0.0000
N3  N  1.0000  0.68026  0.74577  0.14458  0.0000
N4  N  1.0000  0.39042  0.38476  0.14437  0.0000
N5  N  1.0000  0.25096  0.52180  0.14359  0.0000
N6  N  1.0000  0.48643  0.74503  0.14555  0.0000
Ag1  Ag  1.0000  0.43428  0.56220  0.14725  0.0000
Ir1  Ir  1.0000  0.63401  0.56562  0.14571  0.0000
