data_CNAgMn
_audit_creation_method           'pos2cif.pl'
_cell_length_a               12.3170003891
_cell_length_b               12.3170003891315
_cell_length_c               20
_cell_angle_alpha            90
_cell_angle_beta             90
_cell_angle_gamma            120.010002136348
_symmetry_space_group_H-M        'P1'
_symmetry_Int_Tables_number      '1'
_symmetry_cell_setting           'triclinic'
loop_
_symmetry_equiv_pos_as_xyz
x,y,z

loop_
_atom_site_label
_atom_site_type_symbol
_atom_site_occupancy
_atom_site_fract_x
_atom_site_fract_y
_atom_site_fract_z
_atom_site_U_iso_or_equiv
C1  C  1.0000  0.99855  0.19994  0.14175  0.0000
C2  C  1.0000  0.06528  0.13320  0.14137  0.0000
C3  C  1.0000  0.19697  0.19651  0.14167  0.0000
C4  C  1.0000  0.26364  0.12884  0.14190  0.0000
C5  C  1.0000  0.39539  0.19327  0.14260  0.0000
C6  C  1.0000  0.46495  0.13004  0.14293  0.0000
C7  C  1.0000  0.59794  0.20143  0.14337  0.0000
C8  C  1.0000  0.66645  0.13614  0.14311  0.0000
C9  C  1.0000  0.79887  0.20351  0.14281  0.0000
C10  C  1.0000  0.86681  0.13702  0.14209  0.0000
C11  C  1.0000  0.99549  0.39978  0.14299  0.0000
C12  C  1.0000  0.06165  0.33110  0.14229  0.0000
C13  C  1.0000  0.19345  0.39571  0.14263  0.0000
C14  C  1.0000  0.26186  0.32746  0.14255  0.0000
C15  C  1.0000  0.45771  0.32444  0.14356  0.0000
C16  C  1.0000  0.65884  0.33454  0.14388  0.0000
C17  C  1.0000  0.79375  0.40478  0.14380  0.0000
C18  C  1.0000  0.86208  0.33682  0.14321  0.0000
C19  C  1.0000  -0.00098  0.60115  0.14353  0.0000
C20  C  1.0000  0.06379  0.53253  0.14339  0.0000
C21  C  1.0000  0.19817  0.59356  0.14362  0.0000
C22  C  1.0000  0.86486  0.53945  0.14385  0.0000
C23  C  1.0000  0.00467  0.80266  0.14254  0.0000
C24  C  1.0000  0.07065  0.73411  0.14311  0.0000
C25  C  1.0000  0.20438  0.79655  0.14320  0.0000
C26  C  1.0000  0.27289  0.72871  0.14388  0.0000
C27  C  1.0000  0.40907  0.79869  0.14428  0.0000
C28  C  1.0000  0.61207  0.80950  0.14408  0.0000
C29  C  1.0000  0.80647  0.80746  0.14300  0.0000
C30  C  1.0000  0.87289  0.73971  0.14312  0.0000
C31  C  1.0000  0.00284  0.00160  0.14148  0.0000
C32  C  1.0000  0.06888  0.93426  0.14179  0.0000
C33  C  1.0000  0.20086  0.99716  0.14194  0.0000
C34  C  1.0000  0.26831  0.93021  0.14267  0.0000
C35  C  1.0000  0.40094  0.99717  0.14297  0.0000
C36  C  1.0000  0.46974  0.93207  0.14353  0.0000
C37  C  1.0000  0.60271  0.00289  0.14322  0.0000
C38  C  1.0000  0.67348  0.94052  0.14296  0.0000
C39  C  1.0000  0.80489  0.00590  0.14215  0.0000
C40  C  1.0000  0.87136  0.93852  0.14200  0.0000
N1  N  1.0000  0.58615  0.39284  0.14435  0.0000
N2  N  1.0000  0.80613  0.60990  0.14405  0.0000
N3  N  1.0000  0.67638  0.74361  0.14412  0.0000
N4  N  1.0000  0.39232  0.38681  0.14390  0.0000
N5  N  1.0000  0.25374  0.52314  0.14348  0.0000
N6  N  1.0000  0.48509  0.74505  0.14535  0.0000
Ag1  Ag  1.0000  0.43896  0.56444  0.14664  0.0000
Mn1  Mn  1.0000  0.63564  0.56646  0.14526  0.0000
