data_CNAgMo
_audit_creation_method           'pos2cif.pl'
_cell_length_a               12.3170003891
_cell_length_b               12.3170003891315
_cell_length_c               20
_cell_angle_alpha            90
_cell_angle_beta             90
_cell_angle_gamma            120.010002136348
_symmetry_space_group_H-M        'P1'
_symmetry_Int_Tables_number      '1'
_symmetry_cell_setting           'triclinic'
loop_
_symmetry_equiv_pos_as_xyz
x,y,z

loop_
_atom_site_label
_atom_site_type_symbol
_atom_site_occupancy
_atom_site_fract_x
_atom_site_fract_y
_atom_site_fract_z
_atom_site_U_iso_or_equiv
C1  C  1.0000  0.00263  0.20273  0.15165  0.0000
C2  C  1.0000  0.06942  0.13599  0.15144  0.0000
C3  C  1.0000  0.20268  0.20135  0.14986  0.0000
C4  C  1.0000  0.26401  0.12826  0.15029  0.0000
C5  C  1.0000  0.39514  0.18988  0.15061  0.0000
C6  C  1.0000  0.46526  0.12749  0.15130  0.0000
C7  C  1.0000  0.59864  0.19796  0.15132  0.0000
C8  C  1.0000  0.66798  0.13465  0.15247  0.0000
C9  C  1.0000  0.80107  0.20374  0.15177  0.0000
C10  C  1.0000  0.86960  0.13799  0.15312  0.0000
C11  C  1.0000  0.99882  0.40078  0.14460  0.0000
C12  C  1.0000  0.06795  0.33459  0.14725  0.0000
C13  C  1.0000  0.20212  0.40231  0.14214  0.0000
C14  C  1.0000  0.27319  0.33523  0.14561  0.0000
C15  C  1.0000  0.45827  0.31969  0.14722  0.0000
C16  C  1.0000  0.66022  0.33020  0.14736  0.0000
C17  C  1.0000  0.79480  0.40343  0.14413  0.0000
C18  C  1.0000  0.86453  0.33699  0.14719  0.0000
C19  C  1.0000  -0.00263  0.60033  0.14001  0.0000
C20  C  1.0000  0.06496  0.53291  0.14038  0.0000
C21  C  1.0000  0.20026  0.59417  0.13623  0.0000
C22  C  1.0000  0.86197  0.53858  0.13968  0.0000
C23  C  1.0000  0.00175  0.80111  0.14333  0.0000
C24  C  1.0000  0.06855  0.73322  0.14088  0.0000
C25  C  1.0000  0.20321  0.79597  0.14152  0.0000
C26  C  1.0000  0.27247  0.72931  0.13800  0.0000
C27  C  1.0000  0.40919  0.79877  0.14026  0.0000
C28  C  1.0000  0.60722  0.80771  0.14227  0.0000
C29  C  1.0000  0.80329  0.80679  0.14283  0.0000
C30  C  1.0000  0.86889  0.73724  0.14082  0.0000
C31  C  1.0000  0.00382  0.00283  0.15022  0.0000
C32  C  1.0000  0.06760  0.93330  0.14743  0.0000
C33  C  1.0000  0.19969  0.99603  0.14858  0.0000
C34  C  1.0000  0.26729  0.92920  0.14637  0.0000
C35  C  1.0000  0.40030  0.99530  0.14911  0.0000
C36  C  1.0000  0.46959  0.93134  0.14781  0.0000
C37  C  1.0000  0.60277  0.00169  0.15143  0.0000
C38  C  1.0000  0.67249  0.93887  0.15092  0.0000
C39  C  1.0000  0.80493  0.00575  0.15252  0.0000
C40  C  1.0000  0.87099  0.93820  0.14928  0.0000
N1  N  1.0000  0.58671  0.38450  0.14484  0.0000
N2  N  1.0000  0.80028  0.60795  0.13657  0.0000
N3  N  1.0000  0.67305  0.74347  0.13727  0.0000
N4  N  1.0000  0.40380  0.39310  0.14289  0.0000
N5  N  1.0000  0.26174  0.52790  0.13306  0.0000
N6  N  1.0000  0.48149  0.74273  0.13474  0.0000
Ag1  Ag  1.0000  0.43018  0.58708  0.05556  0.0000
Mo1  Mo  1.0000  0.60487  0.55255  0.12779  0.0000
