data_CNAgNb
_audit_creation_method           'pos2cif.pl'
_cell_length_a               12.3170003891
_cell_length_b               12.3170003891315
_cell_length_c               20
_cell_angle_alpha            90
_cell_angle_beta             90
_cell_angle_gamma            120.010002136348
_symmetry_space_group_H-M        'P1'
_symmetry_Int_Tables_number      '1'
_symmetry_cell_setting           'triclinic'
loop_
_symmetry_equiv_pos_as_xyz
x,y,z

loop_
_atom_site_label
_atom_site_type_symbol
_atom_site_occupancy
_atom_site_fract_x
_atom_site_fract_y
_atom_site_fract_z
_atom_site_U_iso_or_equiv
C1  C  1.0000  -0.00031  0.20353  0.14737  0.0000
C2  C  1.0000  0.06672  0.13679  0.14809  0.0000
C3  C  1.0000  0.19988  0.20219  0.14882  0.0000
C4  C  1.0000  0.26191  0.12958  0.14900  0.0000
C5  C  1.0000  0.39347  0.19164  0.14989  0.0000
C6  C  1.0000  0.46300  0.12837  0.14971  0.0000
C7  C  1.0000  0.59610  0.19984  0.14941  0.0000
C8  C  1.0000  0.66513  0.13585  0.14837  0.0000
C9  C  1.0000  0.79799  0.20456  0.14751  0.0000
C10  C  1.0000  0.86668  0.13876  0.14751  0.0000
C11  C  1.0000  0.99568  0.40163  0.14542  0.0000
C12  C  1.0000  0.06460  0.33538  0.14645  0.0000
C13  C  1.0000  0.19950  0.40453  0.14665  0.0000
C14  C  1.0000  0.26913  0.33592  0.14832  0.0000
C15  C  1.0000  0.45692  0.32177  0.15046  0.0000
C16  C  1.0000  0.65772  0.33284  0.14856  0.0000
C17  C  1.0000  0.79198  0.40487  0.14548  0.0000
C18  C  1.0000  0.86125  0.33790  0.14610  0.0000
C19  C  1.0000  -0.00603  0.60105  0.14358  0.0000
C20  C  1.0000  0.06182  0.53356  0.14446  0.0000
C21  C  1.0000  0.19762  0.59415  0.14463  0.0000
C22  C  1.0000  0.85826  0.53976  0.14281  0.0000
C23  C  1.0000  -0.00084  0.80135  0.14523  0.0000
C24  C  1.0000  0.06606  0.73376  0.14428  0.0000
C25  C  1.0000  0.20122  0.79629  0.14502  0.0000
C26  C  1.0000  0.27024  0.72915  0.14434  0.0000
C27  C  1.0000  0.40728  0.79664  0.14448  0.0000
C28  C  1.0000  0.60391  0.80759  0.14476  0.0000
C29  C  1.0000  0.80210  0.80753  0.14489  0.0000
C30  C  1.0000  0.86561  0.73679  0.14354  0.0000
C31  C  1.0000  0.00150  0.00373  0.14753  0.0000
C32  C  1.0000  0.06520  0.93398  0.14702  0.0000
C33  C  1.0000  0.19769  -0.00285  0.14784  0.0000
C34  C  1.0000  0.26526  0.92990  0.14701  0.0000
C35  C  1.0000  0.39835  0.99573  0.14818  0.0000
C36  C  1.0000  0.46732  0.93073  0.14690  0.0000
C37  C  1.0000  0.60035  0.00249  0.14757  0.0000
C38  C  1.0000  0.67028  0.93989  0.14699  0.0000
C39  C  1.0000  0.80254  0.00671  0.14740  0.0000
C40  C  1.0000  0.86886  0.93917  0.14686  0.0000
N1  N  1.0000  0.58573  0.38991  0.14991  0.0000
N2  N  1.0000  0.79433  0.60773  0.14037  0.0000
N3  N  1.0000  0.67204  0.74361  0.14340  0.0000
N4  N  1.0000  0.39956  0.39445  0.14887  0.0000
N5  N  1.0000  0.26019  0.52978  0.14564  0.0000
N6  N  1.0000  0.47893  0.73874  0.14260  0.0000
Ag1  Ag  1.0000  0.57303  0.55118  0.00017  0.0000
Nb1  Nb  1.0000  0.58126  0.55275  0.13257  0.0000
