data_CNAgNi
_audit_creation_method           'pos2cif.pl'
_cell_length_a               12.3170003891
_cell_length_b               12.3170003891315
_cell_length_c               20
_cell_angle_alpha            90
_cell_angle_beta             90
_cell_angle_gamma            120.010002136348
_symmetry_space_group_H-M        'P1'
_symmetry_Int_Tables_number      '1'
_symmetry_cell_setting           'triclinic'
loop_
_symmetry_equiv_pos_as_xyz
x,y,z

loop_
_atom_site_label
_atom_site_type_symbol
_atom_site_occupancy
_atom_site_fract_x
_atom_site_fract_y
_atom_site_fract_z
_atom_site_U_iso_or_equiv
C1  C  1.0000  0.99817  0.19988  0.14179  0.0000
C2  C  1.0000  0.06480  0.13273  0.14138  0.0000
C3  C  1.0000  0.19654  0.19606  0.14167  0.0000
C4  C  1.0000  0.26397  0.12914  0.14187  0.0000
C5  C  1.0000  0.39588  0.19419  0.14260  0.0000
C6  C  1.0000  0.46510  0.13062  0.14295  0.0000
C7  C  1.0000  0.59778  0.20251  0.14343  0.0000
C8  C  1.0000  0.66616  0.13655  0.14322  0.0000
C9  C  1.0000  0.79865  0.20380  0.14289  0.0000
C10  C  1.0000  0.86646  0.13706  0.14214  0.0000
C11  C  1.0000  0.99521  0.39989  0.14309  0.0000
C12  C  1.0000  0.06146  0.33125  0.14240  0.0000
C13  C  1.0000  0.19355  0.39567  0.14274  0.0000
C14  C  1.0000  0.26167  0.32715  0.14262  0.0000
C15  C  1.0000  0.45867  0.32610  0.14356  0.0000
C16  C  1.0000  0.65829  0.33691  0.14390  0.0000
C17  C  1.0000  0.79309  0.40530  0.14385  0.0000
C18  C  1.0000  0.86158  0.33726  0.14329  0.0000
C19  C  1.0000  -0.00098  0.60140  0.14357  0.0000
C20  C  1.0000  0.06389  0.53269  0.14349  0.0000
C21  C  1.0000  0.19874  0.59347  0.14365  0.0000
C22  C  1.0000  0.86384  0.54030  0.14386  0.0000
C23  C  1.0000  0.00471  0.80234  0.14255  0.0000
C24  C  1.0000  0.07075  0.73406  0.14312  0.0000
C25  C  1.0000  0.20489  0.79662  0.14320  0.0000
C26  C  1.0000  0.27335  0.72876  0.14387  0.0000
C27  C  1.0000  0.40946  0.79812  0.14425  0.0000
C28  C  1.0000  0.61215  0.80747  0.14408  0.0000
C29  C  1.0000  0.80546  0.80619  0.14303  0.0000
C30  C  1.0000  0.87254  0.73863  0.14311  0.0000
C31  C  1.0000  0.00235  0.00107  0.14151  0.0000
C32  C  1.0000  0.06895  0.93412  0.14179  0.0000
C33  C  1.0000  0.20101  0.99719  0.14191  0.0000
C34  C  1.0000  0.26853  0.93016  0.14267  0.0000
C35  C  1.0000  0.40122  0.99721  0.14300  0.0000
C36  C  1.0000  0.46990  0.93194  0.14359  0.0000
C37  C  1.0000  0.60285  0.00275  0.14333  0.0000
C38  C  1.0000  0.67333  0.93951  0.14308  0.0000
C39  C  1.0000  0.80443  0.00538  0.14223  0.0000
C40  C  1.0000  0.87058  0.93752  0.14206  0.0000
N1  N  1.0000  0.58652  0.39642  0.14433  0.0000
N2  N  1.0000  0.80544  0.61017  0.14397  0.0000
N3  N  1.0000  0.67608  0.74064  0.14409  0.0000
N4  N  1.0000  0.39140  0.38651  0.14395  0.0000
N5  N  1.0000  0.25476  0.52320  0.14346  0.0000
N6  N  1.0000  0.48499  0.74387  0.14516  0.0000
Ag1  Ag  1.0000  0.44144  0.56373  0.14573  0.0000
Ni1  Ni  1.0000  0.63742  0.56763  0.14491  0.0000
