data_CNAgOs
_audit_creation_method           'pos2cif.pl'
_cell_length_a               12.3170003891
_cell_length_b               12.3170003891315
_cell_length_c               20
_cell_angle_alpha            90
_cell_angle_beta             90
_cell_angle_gamma            120.010002136348
_symmetry_space_group_H-M        'P1'
_symmetry_Int_Tables_number      '1'
_symmetry_cell_setting           'triclinic'
loop_
_symmetry_equiv_pos_as_xyz
x,y,z

loop_
_atom_site_label
_atom_site_type_symbol
_atom_site_occupancy
_atom_site_fract_x
_atom_site_fract_y
_atom_site_fract_z
_atom_site_U_iso_or_equiv
C1  C  1.0000  0.00139  0.20303  0.13588  0.0000
C2  C  1.0000  0.06847  0.13642  0.13658  0.0000
C3  C  1.0000  0.20140  0.20079  0.13832  0.0000
C4  C  1.0000  0.26311  0.12799  0.13870  0.0000
C5  C  1.0000  0.39377  0.18902  0.13953  0.0000
C6  C  1.0000  0.46428  0.12682  0.13937  0.0000
C7  C  1.0000  0.59748  0.19798  0.13920  0.0000
C8  C  1.0000  0.66693  0.13466  0.13731  0.0000
C9  C  1.0000  0.79988  0.20437  0.13683  0.0000
C10  C  1.0000  0.86864  0.13886  0.13512  0.0000
C11  C  1.0000  0.99745  0.40141  0.14158  0.0000
C12  C  1.0000  0.06631  0.33494  0.13927  0.0000
C13  C  1.0000  0.20021  0.40225  0.14444  0.0000
C14  C  1.0000  0.27153  0.33431  0.14135  0.0000
C15  C  1.0000  0.45530  0.31834  0.14178  0.0000
C16  C  1.0000  0.65828  0.33036  0.14150  0.0000
C17  C  1.0000  0.79309  0.40444  0.14202  0.0000
C18  C  1.0000  0.86286  0.33780  0.13981  0.0000
C19  C  1.0000  -0.00353  0.60111  0.14509  0.0000
C20  C  1.0000  0.06396  0.53332  0.14536  0.0000
C21  C  1.0000  0.19942  0.59409  0.14998  0.0000
C22  C  1.0000  0.86123  0.53971  0.14418  0.0000
C23  C  1.0000  0.00318  0.80258  0.14240  0.0000
C24  C  1.0000  0.06887  0.73363  0.14498  0.0000
C25  C  1.0000  0.20346  0.79564  0.14551  0.0000
C26  C  1.0000  0.27244  0.72882  0.14869  0.0000
C27  C  1.0000  0.40958  0.79761  0.14615  0.0000
C28  C  1.0000  0.60750  0.80606  0.14127  0.0000
C29  C  1.0000  0.80449  0.80885  0.14010  0.0000
C30  C  1.0000  0.87161  0.74094  0.14249  0.0000
C31  C  1.0000  0.00384  0.00382  0.13729  0.0000
C32  C  1.0000  0.06811  0.93452  0.13980  0.0000
C33  C  1.0000  0.19960  0.99596  0.13986  0.0000
C34  C  1.0000  0.26716  0.92896  0.14203  0.0000
C35  C  1.0000  0.40013  0.99490  0.14048  0.0000
C36  C  1.0000  0.46949  0.93069  0.14083  0.0000
C37  C  1.0000  0.60245  0.00133  0.13764  0.0000
C38  C  1.0000  0.67238  0.93845  0.13644  0.0000
C39  C  1.0000  0.80460  0.00668  0.13509  0.0000
C40  C  1.0000  0.87126  0.94000  0.13695  0.0000
N1  N  1.0000  0.58392  0.38490  0.14405  0.0000
N2  N  1.0000  0.80059  0.61214  0.14490  0.0000
N3  N  1.0000  0.67457  0.74124  0.14212  0.0000
N4  N  1.0000  0.40087  0.39135  0.14282  0.0000
N5  N  1.0000  0.25998  0.52706  0.15370  0.0000
N6  N  1.0000  0.48167  0.74111  0.14856  0.0000
Ag1  Ag  1.0000  0.44342  0.57667  0.21936  0.0000
Os1  Os  1.0000  0.62042  0.55519  0.14522  0.0000
