data_CNAgPd
_audit_creation_method           'pos2cif.pl'
_cell_length_a               12.3170003891
_cell_length_b               12.3170003891315
_cell_length_c               20
_cell_angle_alpha            90
_cell_angle_beta             90
_cell_angle_gamma            120.010002136348
_symmetry_space_group_H-M        'P1'
_symmetry_Int_Tables_number      '1'
_symmetry_cell_setting           'triclinic'
loop_
_symmetry_equiv_pos_as_xyz
x,y,z

loop_
_atom_site_label
_atom_site_type_symbol
_atom_site_occupancy
_atom_site_fract_x
_atom_site_fract_y
_atom_site_fract_z
_atom_site_U_iso_or_equiv
C1  C  1.0000  0.99809  0.19989  0.14132  0.0000
C2  C  1.0000  0.06516  0.13320  0.14052  0.0000
C3  C  1.0000  0.19663  0.19598  0.14103  0.0000
C4  C  1.0000  0.26335  0.12832  0.14124  0.0000
C5  C  1.0000  0.39466  0.19229  0.14237  0.0000
C6  C  1.0000  0.46477  0.12970  0.14299  0.0000
C7  C  1.0000  0.59750  0.20094  0.14365  0.0000
C8  C  1.0000  0.66624  0.13614  0.14344  0.0000
C9  C  1.0000  0.79870  0.20386  0.14302  0.0000
C10  C  1.0000  0.86665  0.13751  0.14190  0.0000
C11  C  1.0000  0.99499  0.39970  0.14350  0.0000
C12  C  1.0000  0.06087  0.33088  0.14247  0.0000
C13  C  1.0000  0.19255  0.39496  0.14295  0.0000
C14  C  1.0000  0.26140  0.32681  0.14243  0.0000
C15  C  1.0000  0.45676  0.32330  0.14346  0.0000
C16  C  1.0000  0.65801  0.33456  0.14417  0.0000
C17  C  1.0000  0.79319  0.40501  0.14428  0.0000
C18  C  1.0000  0.86151  0.33719  0.14361  0.0000
C19  C  1.0000  0.00009  0.60156  0.14408  0.0000
C20  C  1.0000  0.06385  0.53250  0.14409  0.0000
C21  C  1.0000  0.19800  0.59319  0.14425  0.0000
C22  C  1.0000  0.86561  0.54045  0.14431  0.0000
C23  C  1.0000  0.00612  0.80338  0.14237  0.0000
C24  C  1.0000  0.07136  0.73429  0.14332  0.0000
C25  C  1.0000  0.20524  0.79658  0.14334  0.0000
C26  C  1.0000  0.27341  0.72863  0.14425  0.0000
C27  C  1.0000  0.40949  0.79821  0.14441  0.0000
C28  C  1.0000  0.61257  0.80970  0.14418  0.0000
C29  C  1.0000  0.80725  0.80859  0.14297  0.0000
C30  C  1.0000  0.87459  0.74043  0.14318  0.0000
C31  C  1.0000  0.00326  0.00197  0.14058  0.0000
C32  C  1.0000  0.06958  0.93466  0.14104  0.0000
C33  C  1.0000  0.20108  0.99688  0.14127  0.0000
C34  C  1.0000  0.26857  0.92988  0.14248  0.0000
C35  C  1.0000  0.40107  0.99664  0.14305  0.0000
C36  C  1.0000  0.46987  0.93182  0.14380  0.0000
C37  C  1.0000  0.60287  0.00299  0.14356  0.0000
C38  C  1.0000  0.67379  0.94099  0.14323  0.0000
C39  C  1.0000  0.80485  0.00619  0.14203  0.0000
C40  C  1.0000  0.87192  0.93928  0.14158  0.0000
N1  N  1.0000  0.58407  0.38988  0.14447  0.0000
N2  N  1.0000  0.81081  0.61241  0.14425  0.0000
N3  N  1.0000  0.67846  0.74658  0.14429  0.0000
N4  N  1.0000  0.39117  0.38599  0.14371  0.0000
N5  N  1.0000  0.25252  0.52222  0.14406  0.0000
N6  N  1.0000  0.48533  0.74456  0.14506  0.0000
Ag1  Ag  1.0000  0.43551  0.56319  0.14540  0.0000
Pd1  Pd  1.0000  0.63364  0.56724  0.14497  0.0000
