data_CNAgPt
_audit_creation_method           'pos2cif.pl'
_cell_length_a               12.3170003891
_cell_length_b               12.3170003891315
_cell_length_c               20
_cell_angle_alpha            90
_cell_angle_beta             90
_cell_angle_gamma            120.010002136348
_symmetry_space_group_H-M        'P1'
_symmetry_Int_Tables_number      '1'
_symmetry_cell_setting           'triclinic'
loop_
_symmetry_equiv_pos_as_xyz
x,y,z

loop_
_atom_site_label
_atom_site_type_symbol
_atom_site_occupancy
_atom_site_fract_x
_atom_site_fract_y
_atom_site_fract_z
_atom_site_U_iso_or_equiv
C1  C  1.0000  0.99790  0.19992  0.14130  0.0000
C2  C  1.0000  0.06514  0.13337  0.14048  0.0000
C3  C  1.0000  0.19641  0.19580  0.14100  0.0000
C4  C  1.0000  0.26327  0.12823  0.14122  0.0000
C5  C  1.0000  0.39450  0.19202  0.14239  0.0000
C6  C  1.0000  0.46476  0.12948  0.14301  0.0000
C7  C  1.0000  0.59734  0.20081  0.14367  0.0000
C8  C  1.0000  0.66612  0.13595  0.14346  0.0000
C9  C  1.0000  0.79855  0.20395  0.14302  0.0000
C10  C  1.0000  0.86652  0.13761  0.14189  0.0000
C11  C  1.0000  0.99463  0.39975  0.14351  0.0000
C12  C  1.0000  0.06044  0.33083  0.14246  0.0000
C13  C  1.0000  0.19197  0.39476  0.14297  0.0000
C14  C  1.0000  0.26076  0.32650  0.14243  0.0000
C15  C  1.0000  0.45585  0.32261  0.14348  0.0000
C16  C  1.0000  0.65781  0.33443  0.14417  0.0000
C17  C  1.0000  0.79289  0.40529  0.14428  0.0000
C18  C  1.0000  0.86123  0.33730  0.14362  0.0000
C19  C  1.0000  -0.00004  0.60172  0.14411  0.0000
C20  C  1.0000  0.06354  0.53254  0.14412  0.0000
C21  C  1.0000  0.19767  0.59310  0.14427  0.0000
C22  C  1.0000  0.86551  0.54065  0.14432  0.0000
C23  C  1.0000  0.00690  0.80385  0.14238  0.0000
C24  C  1.0000  0.07174  0.73445  0.14334  0.0000
C25  C  1.0000  0.20554  0.79657  0.14336  0.0000
C26  C  1.0000  0.27358  0.72847  0.14427  0.0000
C27  C  1.0000  0.40972  0.79786  0.14442  0.0000
C28  C  1.0000  0.61281  0.80925  0.14419  0.0000
C29  C  1.0000  0.80874  0.80979  0.14298  0.0000
C30  C  1.0000  0.87586  0.74164  0.14319  0.0000
C31  C  1.0000  0.00367  0.00235  0.14054  0.0000
C32  C  1.0000  0.07002  0.93503  0.14101  0.0000
C33  C  1.0000  0.20135  0.99693  0.14123  0.0000
C34  C  1.0000  0.26881  0.92984  0.14247  0.0000
C35  C  1.0000  0.40125  0.99647  0.14306  0.0000
C36  C  1.0000  0.47003  0.93154  0.14382  0.0000
C37  C  1.0000  0.60294  0.00271  0.14359  0.0000
C38  C  1.0000  0.67392  0.94059  0.14326  0.0000
C39  C  1.0000  0.80497  0.00635  0.14203  0.0000
C40  C  1.0000  0.87253  0.94002  0.14158  0.0000
N1  N  1.0000  0.58350  0.38979  0.14445  0.0000
N2  N  1.0000  0.81116  0.61346  0.14425  0.0000
N3  N  1.0000  0.68000  0.74678  0.14427  0.0000
N4  N  1.0000  0.39031  0.38529  0.14372  0.0000
N5  N  1.0000  0.25198  0.52202  0.14411  0.0000
N6  N  1.0000  0.48567  0.74415  0.14504  0.0000
Ag1  Ag  1.0000  0.43379  0.56209  0.14536  0.0000
Pt1  Pt  1.0000  0.63350  0.56723  0.14485  0.0000
