data_CNAgRe
_audit_creation_method           'pos2cif.pl'
_cell_length_a               12.3170003891
_cell_length_b               12.3170003891315
_cell_length_c               20
_cell_angle_alpha            90
_cell_angle_beta             90
_cell_angle_gamma            120.010002136348
_symmetry_space_group_H-M        'P1'
_symmetry_Int_Tables_number      '1'
_symmetry_cell_setting           'triclinic'
loop_
_symmetry_equiv_pos_as_xyz
x,y,z

loop_
_atom_site_label
_atom_site_type_symbol
_atom_site_occupancy
_atom_site_fract_x
_atom_site_fract_y
_atom_site_fract_z
_atom_site_U_iso_or_equiv
C1  C  1.0000  0.00253  0.20333  0.13695  0.0000
C2  C  1.0000  0.06947  0.13673  0.13722  0.0000
C3  C  1.0000  0.20272  0.20179  0.14000  0.0000
C4  C  1.0000  0.26358  0.12813  0.13966  0.0000
C5  C  1.0000  0.39445  0.18883  0.14160  0.0000
C6  C  1.0000  0.46472  0.12667  0.14038  0.0000
C7  C  1.0000  0.59809  0.19762  0.14048  0.0000
C8  C  1.0000  0.66758  0.13456  0.13682  0.0000
C9  C  1.0000  0.80065  0.20405  0.13724  0.0000
C10  C  1.0000  0.86948  0.13866  0.13483  0.0000
C11  C  1.0000  0.99833  0.40115  0.14352  0.0000
C12  C  1.0000  0.06778  0.33510  0.14154  0.0000
C13  C  1.0000  0.20196  0.40297  0.14722  0.0000
C14  C  1.0000  0.27332  0.33574  0.14389  0.0000
C15  C  1.0000  0.45700  0.31799  0.14509  0.0000
C16  C  1.0000  0.65947  0.32963  0.14444  0.0000
C17  C  1.0000  0.79397  0.40365  0.14395  0.0000
C18  C  1.0000  0.86391  0.33725  0.14150  0.0000
C19  C  1.0000  0.99595  0.60046  0.14507  0.0000
C20  C  1.0000  0.06406  0.53312  0.14640  0.0000
C21  C  1.0000  0.19972  0.59440  0.15065  0.0000
C22  C  1.0000  0.86054  0.53864  0.14466  0.0000
C23  C  1.0000  0.00154  0.80139  0.14079  0.0000
C24  C  1.0000  0.06797  0.73323  0.14388  0.0000
C25  C  1.0000  0.20263  0.79551  0.14396  0.0000
C26  C  1.0000  0.27207  0.72896  0.14692  0.0000
C27  C  1.0000  0.40896  0.79769  0.14253  0.0000
C28  C  1.0000  0.60647  0.80661  0.13679  0.0000
C29  C  1.0000  0.80384  0.80776  0.13698  0.0000
C30  C  1.0000  0.86909  0.73874  0.14048  0.0000
C31  C  1.0000  0.00393  0.00366  0.13622  0.0000
C32  C  1.0000  0.06737  0.93369  0.13854  0.0000
C33  C  1.0000  0.19934  0.99591  0.13927  0.0000
C34  C  1.0000  0.26684  0.92888  0.14081  0.0000
C35  C  1.0000  0.40000  0.99478  0.13957  0.0000
C36  C  1.0000  0.46938  0.93077  0.13830  0.0000
C37  C  1.0000  0.60251  0.00147  0.13517  0.0000
C38  C  1.0000  0.67242  0.93874  0.13311  0.0000
C39  C  1.0000  0.80496  0.00654  0.13291  0.0000
C40  C  1.0000  0.87122  0.93939  0.13455  0.0000
N1  N  1.0000  0.58556  0.38386  0.14906  0.0000
N2  N  1.0000  0.79799  0.60916  0.14394  0.0000
N3  N  1.0000  0.67319  0.74168  0.13867  0.0000
N4  N  1.0000  0.40416  0.39260  0.14519  0.0000
N5  N  1.0000  0.26106  0.52827  0.15625  0.0000
N6  N  1.0000  0.48073  0.74072  0.14311  0.0000
Ag1  Ag  1.0000  0.44558  0.58699  0.22499  0.0000
Re1  Re  1.0000  0.60895  0.55366  0.14686  0.0000
