data_CNAgRh
_audit_creation_method           'pos2cif.pl'
_cell_length_a               12.3170003891
_cell_length_b               12.3170003891315
_cell_length_c               20
_cell_angle_alpha            90
_cell_angle_beta             90
_cell_angle_gamma            120.010002136348
_symmetry_space_group_H-M        'P1'
_symmetry_Int_Tables_number      '1'
_symmetry_cell_setting           'triclinic'
loop_
_symmetry_equiv_pos_as_xyz
x,y,z

loop_
_atom_site_label
_atom_site_type_symbol
_atom_site_occupancy
_atom_site_fract_x
_atom_site_fract_y
_atom_site_fract_z
_atom_site_U_iso_or_equiv
C1  C  1.0000  0.00086  0.20247  0.13701  0.0000
C2  C  1.0000  0.06799  0.13580  0.13689  0.0000
C3  C  1.0000  0.20111  0.20058  0.14011  0.0000
C4  C  1.0000  0.26375  0.12873  0.14008  0.0000
C5  C  1.0000  0.39482  0.19105  0.14256  0.0000
C6  C  1.0000  0.46460  0.12806  0.14123  0.0000
C7  C  1.0000  0.59755  0.19872  0.14182  0.0000
C8  C  1.0000  0.66681  0.13498  0.13856  0.0000
C9  C  1.0000  0.79973  0.20408  0.13817  0.0000
C10  C  1.0000  0.86821  0.13838  0.13556  0.0000
C11  C  1.0000  0.99727  0.40106  0.14291  0.0000
C12  C  1.0000  0.06565  0.33420  0.14131  0.0000
C13  C  1.0000  0.19940  0.40146  0.14714  0.0000
C14  C  1.0000  0.27116  0.33382  0.14547  0.0000
C15  C  1.0000  0.45745  0.32135  0.14736  0.0000
C16  C  1.0000  0.65824  0.33173  0.14492  0.0000
C17  C  1.0000  0.79344  0.40437  0.14361  0.0000
C18  C  1.0000  0.86265  0.33761  0.14140  0.0000
C19  C  1.0000  -0.00252  0.60121  0.14391  0.0000
C20  C  1.0000  0.06419  0.53317  0.14542  0.0000
C21  C  1.0000  0.19947  0.59404  0.14965  0.0000
C22  C  1.0000  0.86190  0.53981  0.14361  0.0000
C23  C  1.0000  0.00291  0.80204  0.13954  0.0000
C24  C  1.0000  0.06897  0.73358  0.14260  0.0000
C25  C  1.0000  0.20383  0.79605  0.14327  0.0000
C26  C  1.0000  0.27260  0.72903  0.14673  0.0000
C27  C  1.0000  0.40947  0.79770  0.14387  0.0000
C28  C  1.0000  0.60731  0.80536  0.13828  0.0000
C29  C  1.0000  0.80254  0.80680  0.13680  0.0000
C30  C  1.0000  0.87034  0.73850  0.13939  0.0000
C31  C  1.0000  0.00326  0.00307  0.13573  0.0000
C32  C  1.0000  0.06805  0.93420  0.13772  0.0000
C33  C  1.0000  0.19992  0.99652  0.13903  0.0000
C34  C  1.0000  0.26739  0.92934  0.14067  0.0000
C35  C  1.0000  0.40028  0.99549  0.14018  0.0000
C36  C  1.0000  0.46929  0.93106  0.13966  0.0000
C37  C  1.0000  0.60243  0.00167  0.13713  0.0000
C38  C  1.0000  0.67206  0.93841  0.13482  0.0000
C39  C  1.0000  0.80402  0.00592  0.13388  0.0000
C40  C  1.0000  0.87033  0.93851  0.13460  0.0000
N1  N  1.0000  0.58514  0.38648  0.14884  0.0000
N2  N  1.0000  0.80260  0.61081  0.14262  0.0000
N3  N  1.0000  0.67335  0.74086  0.13841  0.0000
N4  N  1.0000  0.40023  0.39226  0.15018  0.0000
N5  N  1.0000  0.25911  0.52661  0.15489  0.0000
N6  N  1.0000  0.48111  0.74060  0.14543  0.0000
Ag1  Ag  1.0000  0.44450  0.57741  0.21498  0.0000
Rh1  Rh  1.0000  0.62225  0.55616  0.14401  0.0000
