data_CNAgRu
_audit_creation_method           'pos2cif.pl'
_cell_length_a               12.3170003891
_cell_length_b               12.3170003891315
_cell_length_c               20
_cell_angle_alpha            90
_cell_angle_beta             90
_cell_angle_gamma            120.010002136348
_symmetry_space_group_H-M        'P1'
_symmetry_Int_Tables_number      '1'
_symmetry_cell_setting           'triclinic'
loop_
_symmetry_equiv_pos_as_xyz
x,y,z

loop_
_atom_site_label
_atom_site_type_symbol
_atom_site_occupancy
_atom_site_fract_x
_atom_site_fract_y
_atom_site_fract_z
_atom_site_U_iso_or_equiv
C1  C  1.0000  0.00124  0.20277  0.13598  0.0000
C2  C  1.0000  0.06824  0.13608  0.13659  0.0000
C3  C  1.0000  0.20139  0.20085  0.13797  0.0000
C4  C  1.0000  0.26341  0.12842  0.13867  0.0000
C5  C  1.0000  0.39430  0.19021  0.13923  0.0000
C6  C  1.0000  0.46440  0.12750  0.13961  0.0000
C7  C  1.0000  0.59754  0.19834  0.13957  0.0000
C8  C  1.0000  0.66692  0.13492  0.13791  0.0000
C9  C  1.0000  0.79991  0.20427  0.13712  0.0000
C10  C  1.0000  0.86851  0.13861  0.13545  0.0000
C11  C  1.0000  0.99761  0.40132  0.14141  0.0000
C12  C  1.0000  0.06634  0.33477  0.13910  0.0000
C13  C  1.0000  0.20034  0.40226  0.14370  0.0000
C14  C  1.0000  0.27187  0.33446  0.14054  0.0000
C15  C  1.0000  0.45673  0.32030  0.14099  0.0000
C16  C  1.0000  0.65844  0.33096  0.14134  0.0000
C17  C  1.0000  0.79342  0.40437  0.14175  0.0000
C18  C  1.0000  0.86299  0.33773  0.13976  0.0000
C19  C  1.0000  -0.00309  0.60105  0.14500  0.0000
C20  C  1.0000  0.06427  0.53329  0.14521  0.0000
C21  C  1.0000  0.19961  0.59407  0.14974  0.0000
C22  C  1.0000  0.86158  0.53966  0.14378  0.0000
C23  C  1.0000  0.00253  0.80211  0.14268  0.0000
C24  C  1.0000  0.06867  0.73356  0.14522  0.0000
C25  C  1.0000  0.20342  0.79585  0.14605  0.0000
C26  C  1.0000  0.27240  0.72901  0.14916  0.0000
C27  C  1.0000  0.40947  0.79794  0.14714  0.0000
C28  C  1.0000  0.60736  0.80621  0.14207  0.0000
C29  C  1.0000  0.80290  0.80743  0.14023  0.0000
C30  C  1.0000  0.87031  0.73919  0.14240  0.0000
C31  C  1.0000  0.00335  0.00335  0.13750  0.0000
C32  C  1.0000  0.06777  0.93421  0.14023  0.0000
C33  C  1.0000  0.19950  0.99616  0.14035  0.0000
C34  C  1.0000  0.26710  0.92920  0.14269  0.0000
C35  C  1.0000  0.40009  0.99532  0.14112  0.0000
C36  C  1.0000  0.46937  0.93108  0.14171  0.0000
C37  C  1.0000  0.60234  0.00166  0.13843  0.0000
C38  C  1.0000  0.67211  0.93865  0.13710  0.0000
C39  C  1.0000  0.80426  0.00628  0.13549  0.0000
C40  C  1.0000  0.87058  0.93912  0.13717  0.0000
N1  N  1.0000  0.58488  0.38573  0.14315  0.0000
N2  N  1.0000  0.80097  0.61084  0.14424  0.0000
N3  N  1.0000  0.67347  0.74126  0.14237  0.0000
N4  N  1.0000  0.40139  0.39272  0.14196  0.0000
N5  N  1.0000  0.26019  0.52710  0.15263  0.0000
N6  N  1.0000  0.48145  0.74139  0.14988  0.0000
Ag1  Ag  1.0000  0.44535  0.57483  0.21774  0.0000
Ru1  Ru  1.0000  0.61984  0.55474  0.14281  0.0000
