data_CNAgSc
_audit_creation_method           'pos2cif.pl'
_cell_length_a               12.3170003891
_cell_length_b               12.3170003891315
_cell_length_c               20
_cell_angle_alpha            90
_cell_angle_beta             90
_cell_angle_gamma            120.010002136348
_symmetry_space_group_H-M        'P1'
_symmetry_Int_Tables_number      '1'
_symmetry_cell_setting           'triclinic'
loop_
_symmetry_equiv_pos_as_xyz
x,y,z

loop_
_atom_site_label
_atom_site_type_symbol
_atom_site_occupancy
_atom_site_fract_x
_atom_site_fract_y
_atom_site_fract_z
_atom_site_U_iso_or_equiv
C1  C  1.0000  -0.00099  0.19999  0.14169  0.0000
C2  C  1.0000  0.06524  0.13293  0.14161  0.0000
C3  C  1.0000  0.19715  0.19673  0.14142  0.0000
C4  C  1.0000  0.26346  0.12864  0.14137  0.0000
C5  C  1.0000  0.39532  0.19329  0.14267  0.0000
C6  C  1.0000  0.46457  0.13000  0.14286  0.0000
C7  C  1.0000  0.59798  0.20140  0.14330  0.0000
C8  C  1.0000  0.66660  0.13638  0.14206  0.0000
C9  C  1.0000  0.79898  0.20312  0.14226  0.0000
C10  C  1.0000  0.86717  0.13685  0.14246  0.0000
C11  C  1.0000  0.99608  0.39946  0.14039  0.0000
C12  C  1.0000  0.06278  0.33123  0.14031  0.0000
C13  C  1.0000  0.19468  0.39648  0.13916  0.0000
C14  C  1.0000  0.26294  0.32774  0.14141  0.0000
C15  C  1.0000  0.45912  0.32489  0.14569  0.0000
C16  C  1.0000  0.65890  0.33373  0.14620  0.0000
C17  C  1.0000  0.79424  0.40379  0.14354  0.0000
C18  C  1.0000  0.86267  0.33609  0.14200  0.0000
C19  C  1.0000  -0.00130  0.60020  0.14018  0.0000
C20  C  1.0000  0.06409  0.53206  0.13973  0.0000
C21  C  1.0000  0.19852  0.59342  0.13846  0.0000
C22  C  1.0000  0.86527  0.53777  0.14143  0.0000
C23  C  1.0000  0.00284  0.80157  0.14229  0.0000
C24  C  1.0000  0.06950  0.73366  0.14048  0.0000
C25  C  1.0000  0.20308  0.79620  0.14015  0.0000
C26  C  1.0000  0.27202  0.72868  0.13950  0.0000
C27  C  1.0000  0.40810  0.79946  0.14093  0.0000
C28  C  1.0000  0.61026  0.81152  0.14393  0.0000
C29  C  1.0000  0.80368  0.80574  0.14499  0.0000
C30  C  1.0000  0.86983  0.73710  0.14301  0.0000
C31  C  1.0000  0.00178  0.00099  0.14256  0.0000
C32  C  1.0000  0.06750  0.93308  0.14216  0.0000
C33  C  1.0000  0.19992  0.99673  0.14128  0.0000
C34  C  1.0000  0.26742  0.93001  0.14101  0.0000
C35  C  1.0000  0.40013  0.99737  0.14157  0.0000
C36  C  1.0000  0.46918  0.93263  0.14144  0.0000
C37  C  1.0000  0.60213  0.00361  0.14179  0.0000
C38  C  1.0000  0.67289  0.94160  0.14278  0.0000
C39  C  1.0000  0.80468  0.00584  0.14343  0.0000
C40  C  1.0000  0.87044  0.93783  0.14408  0.0000
N1  N  1.0000  0.58681  0.39225  0.15229  0.0000
N2  N  1.0000  0.80396  0.60639  0.14238  0.0000
N3  N  1.0000  0.67306  0.74452  0.14806  0.0000
N4  N  1.0000  0.39377  0.38708  0.14323  0.0000
N5  N  1.0000  0.25514  0.52381  0.13660  0.0000
N6  N  1.0000  0.48405  0.74626  0.14192  0.0000
Ag1  Ag  1.0000  0.44467  0.56548  0.14089  0.0000
Sc1  Sc  1.0000  0.64673  0.57554  0.18897  0.0000
