data_CNAgTa
_audit_creation_method           'pos2cif.pl'
_cell_length_a               12.3170003891
_cell_length_b               12.3170003891315
_cell_length_c               20
_cell_angle_alpha            90
_cell_angle_beta             90
_cell_angle_gamma            120.010002136348
_symmetry_space_group_H-M        'P1'
_symmetry_Int_Tables_number      '1'
_symmetry_cell_setting           'triclinic'
loop_
_symmetry_equiv_pos_as_xyz
x,y,z

loop_
_atom_site_label
_atom_site_type_symbol
_atom_site_occupancy
_atom_site_fract_x
_atom_site_fract_y
_atom_site_fract_z
_atom_site_U_iso_or_equiv
C1  C  1.0000  -0.00104  0.20029  0.13678  0.0000
C2  C  1.0000  0.06522  0.13315  0.13507  0.0000
C3  C  1.0000  0.19690  0.19663  0.12859  0.0000
C4  C  1.0000  0.26321  0.12825  0.13045  0.0000
C5  C  1.0000  0.39525  0.19278  0.13070  0.0000
C6  C  1.0000  0.46475  0.12987  0.13784  0.0000
C7  C  1.0000  0.59811  0.20144  0.14144  0.0000
C8  C  1.0000  0.66672  0.13618  0.14593  0.0000
C9  C  1.0000  0.79909  0.20364  0.14425  0.0000
C10  C  1.0000  0.86744  0.13730  0.14464  0.0000
C11  C  1.0000  0.99589  0.40005  0.13650  0.0000
C12  C  1.0000  0.06250  0.33159  0.13183  0.0000
C13  C  1.0000  0.19422  0.39694  0.12466  0.0000
C14  C  1.0000  0.26253  0.32777  0.12370  0.0000
C15  C  1.0000  0.45782  0.32444  0.13028  0.0000
C16  C  1.0000  0.65898  0.33389  0.14279  0.0000
C17  C  1.0000  0.79416  0.40496  0.14543  0.0000
C18  C  1.0000  0.86255  0.33689  0.14165  0.0000
C19  C  1.0000  -0.00183  0.60064  0.14460  0.0000
C20  C  1.0000  0.06388  0.53255  0.13747  0.0000
C21  C  1.0000  0.19867  0.59385  0.13319  0.0000
C22  C  1.0000  0.86488  0.53860  0.15022  0.0000
C23  C  1.0000  0.00367  0.80224  0.14731  0.0000
C24  C  1.0000  0.07025  0.73398  0.14469  0.0000
C25  C  1.0000  0.20371  0.79606  0.14168  0.0000
C26  C  1.0000  0.27299  0.72841  0.14042  0.0000
C27  C  1.0000  0.40906  0.79878  0.14732  0.0000
C28  C  1.0000  0.61094  0.81047  0.16160  0.0000
C29  C  1.0000  0.80725  0.80837  0.15976  0.0000
C30  C  1.0000  0.87250  0.74011  0.15586  0.0000
C31  C  1.0000  0.00251  0.00166  0.14236  0.0000
C32  C  1.0000  0.06806  0.93370  0.14147  0.0000
C33  C  1.0000  0.20017  -0.00336  0.13645  0.0000
C34  C  1.0000  0.26802  0.93003  0.13962  0.0000
C35  C  1.0000  0.40074  -0.00278  0.14117  0.0000
C36  C  1.0000  0.46972  0.93218  0.14750  0.0000
C37  C  1.0000  0.60264  0.00320  0.15056  0.0000
C38  C  1.0000  0.67356  0.94119  0.15681  0.0000
C39  C  1.0000  0.80554  0.00679  0.15245  0.0000
C40  C  1.0000  0.87189  0.93920  0.15192  0.0000
N1  N  1.0000  0.58489  0.39206  0.14292  0.0000
N2  N  1.0000  0.80434  0.60883  0.16254  0.0000
N3  N  1.0000  0.67723  0.74506  0.17057  0.0000
N4  N  1.0000  0.39382  0.38725  0.12211  0.0000
N5  N  1.0000  0.25482  0.52464  0.12281  0.0000
N6  N  1.0000  0.48513  0.74509  0.15418  0.0000
Ag1  Ag  1.0000  0.44544  0.56841  0.12869  0.0000
Ta1  Ta  1.0000  0.62827  0.55786  0.19115  0.0000
