data_CNAgTc
_audit_creation_method           'pos2cif.pl'
_cell_length_a               12.3170003891
_cell_length_b               12.3170003891315
_cell_length_c               20
_cell_angle_alpha            90
_cell_angle_beta             90
_cell_angle_gamma            120.010002136348
_symmetry_space_group_H-M        'P1'
_symmetry_Int_Tables_number      '1'
_symmetry_cell_setting           'triclinic'
loop_
_symmetry_equiv_pos_as_xyz
x,y,z

loop_
_atom_site_label
_atom_site_type_symbol
_atom_site_occupancy
_atom_site_fract_x
_atom_site_fract_y
_atom_site_fract_z
_atom_site_U_iso_or_equiv
C1  C  1.0000  0.00218  0.20292  0.13661  0.0000
C2  C  1.0000  0.06902  0.13624  0.13722  0.0000
C3  C  1.0000  0.20235  0.20143  0.13879  0.0000
C4  C  1.0000  0.26377  0.12840  0.13884  0.0000
C5  C  1.0000  0.39482  0.18994  0.13973  0.0000
C6  C  1.0000  0.46481  0.12740  0.13928  0.0000
C7  C  1.0000  0.59818  0.19810  0.13918  0.0000
C8  C  1.0000  0.66756  0.13489  0.13702  0.0000
C9  C  1.0000  0.80061  0.20400  0.13699  0.0000
C10  C  1.0000  0.86926  0.13844  0.13555  0.0000
C11  C  1.0000  -0.00158  0.40108  0.14183  0.0000
C12  C  1.0000  0.06754  0.33486  0.13989  0.0000
C13  C  1.0000  0.20167  0.40263  0.14486  0.0000
C14  C  1.0000  0.27299  0.33527  0.14172  0.0000
C15  C  1.0000  0.45772  0.31981  0.14213  0.0000
C16  C  1.0000  0.65961  0.33040  0.14183  0.0000
C17  C  1.0000  0.79426  0.40368  0.14208  0.0000
C18  C  1.0000  0.86398  0.33727  0.14005  0.0000
C19  C  1.0000  -0.00332  0.60048  0.14466  0.0000
C20  C  1.0000  0.06451  0.53309  0.14512  0.0000
C21  C  1.0000  0.19998  0.59424  0.14952  0.0000
C22  C  1.0000  0.86134  0.53871  0.14386  0.0000
C23  C  1.0000  0.00139  0.80124  0.14232  0.0000
C24  C  1.0000  0.06811  0.73324  0.14444  0.0000
C25  C  1.0000  0.20283  0.79572  0.14466  0.0000
C26  C  1.0000  0.27214  0.72911  0.14755  0.0000
C27  C  1.0000  0.40901  0.79816  0.14472  0.0000
C28  C  1.0000  0.60667  0.80715  0.14065  0.0000
C29  C  1.0000  0.80284  0.80701  0.14044  0.0000
C30  C  1.0000  0.86861  0.73782  0.14258  0.0000
C31  C  1.0000  0.00353  0.00323  0.13780  0.0000
C32  C  1.0000  0.06730  0.93356  0.13997  0.0000
C33  C  1.0000  0.19935  0.99602  0.13975  0.0000
C34  C  1.0000  0.26691  0.92913  0.14142  0.0000
C35  C  1.0000  0.40004  0.99529  0.13981  0.0000
C36  C  1.0000  0.46935  0.93120  0.13972  0.0000
C37  C  1.0000  0.60247  0.00181  0.13684  0.0000
C38  C  1.0000  0.67232  0.93912  0.13599  0.0000
C39  C  1.0000  0.80472  0.00625  0.13535  0.0000
C40  C  1.0000  0.87076  0.93883  0.13745  0.0000
N1  N  1.0000  0.58630  0.38504  0.14504  0.0000
N2  N  1.0000  0.79924  0.60842  0.14432  0.0000
N3  N  1.0000  0.67265  0.74236  0.14237  0.0000
N4  N  1.0000  0.40342  0.39308  0.14270  0.0000
N5  N  1.0000  0.26117  0.52790  0.15370  0.0000
N6  N  1.0000  0.48082  0.74146  0.14705  0.0000
Ag1  Ag  1.0000  0.44348  0.58171  0.22364  0.0000
Tc1  Tc  1.0000  0.61033  0.55400  0.14490  0.0000
