data_CNAgTi
_audit_creation_method           'pos2cif.pl'
_cell_length_a               12.3170003891
_cell_length_b               12.3170003891315
_cell_length_c               20
_cell_angle_alpha            90
_cell_angle_beta             90
_cell_angle_gamma            120.010002136348
_symmetry_space_group_H-M        'P1'
_symmetry_Int_Tables_number      '1'
_symmetry_cell_setting           'triclinic'
loop_
_symmetry_equiv_pos_as_xyz
x,y,z

loop_
_atom_site_label
_atom_site_type_symbol
_atom_site_occupancy
_atom_site_fract_x
_atom_site_fract_y
_atom_site_fract_z
_atom_site_U_iso_or_equiv
C1  C  1.0000  -0.00177  0.19899  0.14210  0.0000
C2  C  1.0000  0.06479  0.13225  0.14326  0.0000
C3  C  1.0000  0.19675  0.19641  0.14923  0.0000
C4  C  1.0000  0.26373  0.12900  0.14815  0.0000
C5  C  1.0000  0.39581  0.19451  0.15073  0.0000
C6  C  1.0000  0.46457  0.13071  0.14639  0.0000
C7  C  1.0000  0.59798  0.20245  0.14514  0.0000
C8  C  1.0000  0.66599  0.13664  0.13915  0.0000
C9  C  1.0000  0.79844  0.20259  0.13930  0.0000
C10  C  1.0000  0.86642  0.13590  0.13788  0.0000
C11  C  1.0000  0.99585  0.39886  0.14221  0.0000
C12  C  1.0000  0.06219  0.33042  0.14503  0.0000
C13  C  1.0000  0.19377  0.39590  0.15135  0.0000
C14  C  1.0000  0.26253  0.32720  0.15549  0.0000
C15  C  1.0000  0.45994  0.32654  0.15856  0.0000
C16  C  1.0000  0.65900  0.33528  0.14915  0.0000
C17  C  1.0000  0.79406  0.40341  0.14143  0.0000
C18  C  1.0000  0.86219  0.33552  0.14097  0.0000
C19  C  1.0000  -0.00094  0.59944  0.13640  0.0000
C20  C  1.0000  0.06409  0.53139  0.14155  0.0000
C21  C  1.0000  0.19824  0.59295  0.14573  0.0000
C22  C  1.0000  0.86598  0.53646  0.13400  0.0000
C23  C  1.0000  0.00294  0.80105  0.13681  0.0000
C24  C  1.0000  0.06950  0.73321  0.13729  0.0000
C25  C  1.0000  0.20311  0.79604  0.14057  0.0000
C26  C  1.0000  0.27187  0.72840  0.14280  0.0000
C27  C  1.0000  0.40777  0.79917  0.14068  0.0000
C28  C  1.0000  0.60840  0.80980  0.13213  0.0000
C29  C  1.0000  0.80252  0.80411  0.13050  0.0000
C30  C  1.0000  0.86953  0.73558  0.13074  0.0000
C31  C  1.0000  0.00109  0.00022  0.13945  0.0000
C32  C  1.0000  0.06732  0.93255  0.14041  0.0000
C33  C  1.0000  0.19992  0.99678  0.14358  0.0000
C34  C  1.0000  0.26734  0.93007  0.14233  0.0000
C35  C  1.0000  0.40023  0.99792  0.14252  0.0000
C36  C  1.0000  0.46882  0.93269  0.13880  0.0000
C37  C  1.0000  0.60161  0.00356  0.13579  0.0000
C38  C  1.0000  0.67166  0.94056  0.13116  0.0000
C39  C  1.0000  0.80373  0.00469  0.13359  0.0000
C40  C  1.0000  0.86975  0.93687  0.13482  0.0000
N1  N  1.0000  0.58870  0.39547  0.16092  0.0000
N2  N  1.0000  0.80498  0.60463  0.12763  0.0000
N3  N  1.0000  0.67161  0.74255  0.13088  0.0000
N4  N  1.0000  0.39258  0.38670  0.16346  0.0000
N5  N  1.0000  0.25405  0.52317  0.15257  0.0000
N6  N  1.0000  0.48289  0.74478  0.14001  0.0000
Ag1  Ag  1.0000  0.44312  0.56676  0.16394  0.0000
Ti1  Ti  1.0000  0.66242  0.59099  0.17536  0.0000
