data_CNAgV
_audit_creation_method           'pos2cif.pl'
_cell_length_a               12.3170003891
_cell_length_b               12.3170003891315
_cell_length_c               20
_cell_angle_alpha            90
_cell_angle_beta             90
_cell_angle_gamma            120.010002136348
_symmetry_space_group_H-M        'P1'
_symmetry_Int_Tables_number      '1'
_symmetry_cell_setting           'triclinic'
loop_
_symmetry_equiv_pos_as_xyz
x,y,z

loop_
_atom_site_label
_atom_site_type_symbol
_atom_site_occupancy
_atom_site_fract_x
_atom_site_fract_y
_atom_site_fract_z
_atom_site_U_iso_or_equiv
C1  C  1.0000  0.00198  0.20228  0.13575  0.0000
C2  C  1.0000  0.06898  0.13576  0.13670  0.0000
C3  C  1.0000  0.20242  0.20144  0.13856  0.0000
C4  C  1.0000  0.26435  0.12908  0.13935  0.0000
C5  C  1.0000  0.39573  0.19171  0.13994  0.0000
C6  C  1.0000  0.46525  0.12852  0.13933  0.0000
C7  C  1.0000  0.59854  0.19867  0.13859  0.0000
C8  C  1.0000  0.66766  0.13490  0.13681  0.0000
C9  C  1.0000  0.80063  0.20358  0.13617  0.0000
C10  C  1.0000  0.86900  0.13762  0.13488  0.0000
C11  C  1.0000  0.99854  0.40079  0.14054  0.0000
C12  C  1.0000  0.06723  0.33429  0.13866  0.0000
C13  C  1.0000  0.20125  0.40193  0.14327  0.0000
C14  C  1.0000  0.27278  0.33525  0.14110  0.0000
C15  C  1.0000  0.45943  0.32238  0.14204  0.0000
C16  C  1.0000  0.66014  0.33117  0.14047  0.0000
C17  C  1.0000  0.79476  0.40353  0.14089  0.0000
C18  C  1.0000  0.86423  0.33696  0.13883  0.0000
C19  C  1.0000  -0.00236  0.60054  0.14389  0.0000
C20  C  1.0000  0.06494  0.53299  0.14411  0.0000
C21  C  1.0000  0.19996  0.59418  0.14881  0.0000
C22  C  1.0000  0.86231  0.53885  0.14293  0.0000
C23  C  1.0000  0.00156  0.80108  0.14219  0.0000
C24  C  1.0000  0.06853  0.73331  0.14430  0.0000
C25  C  1.0000  0.20321  0.79626  0.14527  0.0000
C26  C  1.0000  0.27228  0.72936  0.14838  0.0000
C27  C  1.0000  0.40898  0.79877  0.14705  0.0000
C28  C  1.0000  0.60703  0.80671  0.14303  0.0000
C29  C  1.0000  0.80207  0.80554  0.14105  0.0000
C30  C  1.0000  0.86849  0.73644  0.14239  0.0000
C31  C  1.0000  0.00339  0.00258  0.13763  0.0000
C32  C  1.0000  0.06758  0.93353  0.14013  0.0000
C33  C  1.0000  0.19984  0.99668  0.14037  0.0000
C34  C  1.0000  0.26731  0.92970  0.14231  0.0000
C35  C  1.0000  0.40037  0.99607  0.14064  0.0000
C36  C  1.0000  0.46944  0.93172  0.14114  0.0000
C37  C  1.0000  0.60261  0.00183  0.13768  0.0000
C38  C  1.0000  0.67209  0.93867  0.13674  0.0000
C39  C  1.0000  0.80439  0.00535  0.13524  0.0000
C40  C  1.0000  0.87036  0.93752  0.13752  0.0000
N1  N  1.0000  0.58787  0.38736  0.14300  0.0000
N2  N  1.0000  0.80000  0.60714  0.14377  0.0000
N3  N  1.0000  0.67168  0.74127  0.14401  0.0000
N4  N  1.0000  0.40394  0.39518  0.14353  0.0000
N5  N  1.0000  0.26089  0.52753  0.15183  0.0000
N6  N  1.0000  0.48127  0.74243  0.15126  0.0000
Ag1  Ag  1.0000  0.43338  0.57883  0.22198  0.0000
V1  V  1.0000  0.61071  0.55386  0.14786  0.0000
