data_CNAgW
_audit_creation_method           'pos2cif.pl'
_cell_length_a               12.3170003891
_cell_length_b               12.3170003891315
_cell_length_c               20
_cell_angle_alpha            90
_cell_angle_beta             90
_cell_angle_gamma            120.010002136348
_symmetry_space_group_H-M        'P1'
_symmetry_Int_Tables_number      '1'
_symmetry_cell_setting           'triclinic'
loop_
_symmetry_equiv_pos_as_xyz
x,y,z

loop_
_atom_site_label
_atom_site_type_symbol
_atom_site_occupancy
_atom_site_fract_x
_atom_site_fract_y
_atom_site_fract_z
_atom_site_U_iso_or_equiv
C1  C  1.0000  -0.00182  0.19980  0.13029  0.0000
C2  C  1.0000  0.06461  0.13253  0.12704  0.0000
C3  C  1.0000  0.19672  0.19610  0.12530  0.0000
C4  C  1.0000  0.26366  0.12844  0.12752  0.0000
C5  C  1.0000  0.39550  0.19328  0.13211  0.0000
C6  C  1.0000  0.46486  0.12982  0.13745  0.0000
C7  C  1.0000  0.59797  0.20123  0.14195  0.0000
C8  C  1.0000  0.66661  0.13591  0.14282  0.0000
C9  C  1.0000  0.79889  0.20361  0.14042  0.0000
C10  C  1.0000  0.86674  0.13681  0.13726  0.0000
C11  C  1.0000  0.99538  0.39996  0.13610  0.0000
C12  C  1.0000  0.06149  0.33126  0.12970  0.0000
C13  C  1.0000  0.19357  0.39657  0.12708  0.0000
C14  C  1.0000  0.26214  0.32756  0.12814  0.0000
C15  C  1.0000  0.45644  0.32389  0.13990  0.0000
C16  C  1.0000  0.65866  0.33340  0.14776  0.0000
C17  C  1.0000  0.79381  0.40485  0.14847  0.0000
C18  C  1.0000  0.86206  0.33701  0.14118  0.0000
C19  C  1.0000  -0.00092  0.60103  0.14482  0.0000
C20  C  1.0000  0.06385  0.53245  0.13882  0.0000
C21  C  1.0000  0.19840  0.59362  0.13692  0.0000
C22  C  1.0000  0.86590  0.53966  0.15216  0.0000
C23  C  1.0000  0.00470  0.80265  0.14194  0.0000
C24  C  1.0000  0.07094  0.73411  0.14237  0.0000
C25  C  1.0000  0.20463  0.79637  0.14062  0.0000
C26  C  1.0000  0.27326  0.72837  0.14375  0.0000
C27  C  1.0000  0.40926  0.79881  0.15140  0.0000
C28  C  1.0000  0.61240  0.81109  0.16212  0.0000
C29  C  1.0000  0.80846  0.80952  0.15562  0.0000
C30  C  1.0000  0.87445  0.74109  0.15288  0.0000
C31  C  1.0000  0.00207  0.00089  0.13261  0.0000
C32  C  1.0000  0.06848  0.93365  0.13350  0.0000
C33  C  1.0000  0.20067  0.99648  0.13083  0.0000
C34  C  1.0000  0.26841  0.92990  0.13658  0.0000
C35  C  1.0000  0.40110  0.99704  0.13918  0.0000
C36  C  1.0000  0.46983  0.93204  0.14657  0.0000
C37  C  1.0000  0.60281  0.00283  0.14690  0.0000
C38  C  1.0000  0.67381  0.94064  0.15087  0.0000
C39  C  1.0000  0.80496  0.00603  0.14360  0.0000
C40  C  1.0000  0.87154  0.93851  0.14304  0.0000
N1  N  1.0000  0.58344  0.38970  0.15500  0.0000
N2  N  1.0000  0.80894  0.61179  0.16296  0.0000
N3  N  1.0000  0.68017  0.74767  0.17109  0.0000
N4  N  1.0000  0.39135  0.38653  0.13778  0.0000
N5  N  1.0000  0.25441  0.52407  0.12882  0.0000
N6  N  1.0000  0.48526  0.74636  0.16341  0.0000
Ag1  Ag  1.0000  0.43469  0.56369  0.15527  0.0000
W1  W  1.0000  0.63249  0.56255  0.19003  0.0000
