data_CNAgY
_audit_creation_method           'pos2cif.pl'
_cell_length_a               12.3170003891
_cell_length_b               12.3170003891315
_cell_length_c               20
_cell_angle_alpha            90
_cell_angle_beta             90
_cell_angle_gamma            120.010002136348
_symmetry_space_group_H-M        'P1'
_symmetry_Int_Tables_number      '1'
_symmetry_cell_setting           'triclinic'
loop_
_symmetry_equiv_pos_as_xyz
x,y,z

loop_
_atom_site_label
_atom_site_type_symbol
_atom_site_occupancy
_atom_site_fract_x
_atom_site_fract_y
_atom_site_fract_z
_atom_site_U_iso_or_equiv
C1  C  1.0000  0.00222  0.20192  0.14689  0.0000
C2  C  1.0000  0.06868  0.13489  0.14559  0.0000
C3  C  1.0000  0.20151  0.19988  0.14512  0.0000
C4  C  1.0000  0.26424  0.12830  0.14261  0.0000
C5  C  1.0000  0.39598  0.19159  0.14113  0.0000
C6  C  1.0000  0.46586  0.12872  0.14085  0.0000
C7  C  1.0000  0.59906  0.19965  0.14206  0.0000
C8  C  1.0000  0.66824  0.13580  0.14332  0.0000
C9  C  1.0000  0.80111  0.20382  0.14535  0.0000
C10  C  1.0000  0.86947  0.13772  0.14566  0.0000
C11  C  1.0000  0.99884  0.40045  0.14688  0.0000
C12  C  1.0000  0.06724  0.33372  0.14745  0.0000
C13  C  1.0000  0.20113  0.40058  0.14631  0.0000
C14  C  1.0000  0.26971  0.33264  0.14688  0.0000
C15  C  1.0000  0.45990  0.32182  0.14187  0.0000
C16  C  1.0000  0.66053  0.33247  0.14381  0.0000
C17  C  1.0000  0.79525  0.40395  0.14714  0.0000
C18  C  1.0000  0.86479  0.33700  0.14667  0.0000
C19  C  1.0000  -0.00101  0.60041  0.14654  0.0000
C20  C  1.0000  0.06626  0.53289  0.14568  0.0000
C21  C  1.0000  0.20152  0.59377  0.14282  0.0000
C22  C  1.0000  0.86354  0.53907  0.14911  0.0000
C23  C  1.0000  0.00220  0.80068  0.14452  0.0000
C24  C  1.0000  0.06943  0.73316  0.14480  0.0000
C25  C  1.0000  0.20394  0.79609  0.14298  0.0000
C26  C  1.0000  0.27316  0.72884  0.14257  0.0000
C27  C  1.0000  0.40943  0.79812  0.14194  0.0000
C28  C  1.0000  0.60858  0.80977  0.14136  0.0000
C29  C  1.0000  0.80389  0.80585  0.14323  0.0000
C30  C  1.0000  0.86867  0.73547  0.14694  0.0000
C31  C  1.0000  0.00373  0.00211  0.14423  0.0000
C32  C  1.0000  0.06788  0.93285  0.14329  0.0000
C33  C  1.0000  0.20033  0.99643  0.14238  0.0000
C34  C  1.0000  0.26796  0.92946  0.14187  0.0000
C35  C  1.0000  0.40097  0.99612  0.14125  0.0000
C36  C  1.0000  0.47010  0.93170  0.14202  0.0000
C37  C  1.0000  0.60326  0.00311  0.14279  0.0000
C38  C  1.0000  0.67325  0.94064  0.14311  0.0000
C39  C  1.0000  0.80563  0.00607  0.14404  0.0000
C40  C  1.0000  0.87142  0.93790  0.14362  0.0000
N1  N  1.0000  0.58787  0.38884  0.14318  0.0000
N2  N  1.0000  0.80082  0.60635  0.15258  0.0000
N3  N  1.0000  0.67368  0.74492  0.14022  0.0000
N4  N  1.0000  0.40134  0.39363  0.14500  0.0000
N5  N  1.0000  0.26376  0.52768  0.14123  0.0000
N6  N  1.0000  0.48199  0.74070  0.14066  0.0000
Ag1  Ag  1.0000  0.43123  0.57675  0.06243  0.0000
Y1  Y  1.0000  0.58844  0.55686  0.17998  0.0000
