data_CNAgZn
_audit_creation_method           'pos2cif.pl'
_cell_length_a               12.3170003891
_cell_length_b               12.3170003891315
_cell_length_c               20
_cell_angle_alpha            90
_cell_angle_beta             90
_cell_angle_gamma            120.010002136348
_symmetry_space_group_H-M        'P1'
_symmetry_Int_Tables_number      '1'
_symmetry_cell_setting           'triclinic'
loop_
_symmetry_equiv_pos_as_xyz
x,y,z

loop_
_atom_site_label
_atom_site_type_symbol
_atom_site_occupancy
_atom_site_fract_x
_atom_site_fract_y
_atom_site_fract_z
_atom_site_U_iso_or_equiv
C1  C  1.0000  0.99915  0.20076  0.13355  0.0000
C2  C  1.0000  0.06591  0.13389  0.13291  0.0000
C3  C  1.0000  0.19818  0.19818  0.13765  0.0000
C4  C  1.0000  0.26359  0.12908  0.13869  0.0000
C5  C  1.0000  0.39488  0.19310  0.14253  0.0000
C6  C  1.0000  0.46487  0.13032  0.14148  0.0000
C7  C  1.0000  0.59792  0.20114  0.14214  0.0000
C8  C  1.0000  0.66642  0.13602  0.13852  0.0000
C9  C  1.0000  0.79906  0.20366  0.13665  0.0000
C10  C  1.0000  0.86673  0.13686  0.13300  0.0000
C11  C  1.0000  0.99645  0.40019  0.14056  0.0000
C12  C  1.0000  0.06353  0.33237  0.13839  0.0000
C13  C  1.0000  0.19626  0.39842  0.14471  0.0000
C14  C  1.0000  0.26488  0.32952  0.14557  0.0000
C15  C  1.0000  0.45662  0.32367  0.15056  0.0000
C16  C  1.0000  0.65843  0.33456  0.14597  0.0000
C17  C  1.0000  0.79375  0.40491  0.14362  0.0000
C18  C  1.0000  0.86234  0.33704  0.13985  0.0000
C19  C  1.0000  0.00024  0.60133  0.14295  0.0000
C20  C  1.0000  0.06530  0.53275  0.14394  0.0000
C21  C  1.0000  0.19976  0.59331  0.14873  0.0000
C22  C  1.0000  0.86585  0.54033  0.14328  0.0000
C23  C  1.0000  0.00479  0.80283  0.13775  0.0000
C24  C  1.0000  0.07067  0.73424  0.14177  0.0000
C25  C  1.0000  0.20478  0.79685  0.14394  0.0000
C26  C  1.0000  0.27315  0.72927  0.14891  0.0000
C27  C  1.0000  0.40930  0.79933  0.14934  0.0000
C28  C  1.0000  0.60786  0.80660  0.14383  0.0000
C29  C  1.0000  0.80374  0.80553  0.13752  0.0000
C30  C  1.0000  0.87252  0.73836  0.13869  0.0000
C31  C  1.0000  0.00236  0.00154  0.13232  0.0000
C32  C  1.0000  0.06875  0.93434  0.13510  0.0000
C33  C  1.0000  0.20066  0.99728  0.13744  0.0000
C34  C  1.0000  0.26816  0.93039  0.14101  0.0000
C35  C  1.0000  0.40081  0.99735  0.14122  0.0000
C36  C  1.0000  0.46943  0.93234  0.14259  0.0000
C37  C  1.0000  0.60227  0.00250  0.13871  0.0000
C38  C  1.0000  0.67149  0.93854  0.13592  0.0000
C39  C  1.0000  0.80334  0.00472  0.13237  0.0000
C40  C  1.0000  0.86988  0.93704  0.13292  0.0000
N1  N  1.0000  0.58416  0.39001  0.15227  0.0000
N2  N  1.0000  0.80831  0.61072  0.14280  0.0000
N3  N  1.0000  0.67375  0.74186  0.14305  0.0000
N4  N  1.0000  0.39314  0.38750  0.15635  0.0000
N5  N  1.0000  0.25772  0.52480  0.15187  0.0000
N6  N  1.0000  0.48349  0.74454  0.15560  0.0000
Ag1  Ag  1.0000  0.43977  0.56543  0.19999  0.0000
Zn1  Zn  1.0000  0.63259  0.56583  0.15344  0.0000
