data_CNAgZr
_audit_creation_method           'pos2cif.pl'
_cell_length_a               12.3170003891
_cell_length_b               12.3170003891315
_cell_length_c               20
_cell_angle_alpha            90
_cell_angle_beta             90
_cell_angle_gamma            120.010002136348
_symmetry_space_group_H-M        'P1'
_symmetry_Int_Tables_number      '1'
_symmetry_cell_setting           'triclinic'
loop_
_symmetry_equiv_pos_as_xyz
x,y,z

loop_
_atom_site_label
_atom_site_type_symbol
_atom_site_occupancy
_atom_site_fract_x
_atom_site_fract_y
_atom_site_fract_z
_atom_site_U_iso_or_equiv
C1  C  1.0000  -0.00105  0.20283  0.14776  0.0000
C2  C  1.0000  0.06584  0.13619  0.14845  0.0000
C3  C  1.0000  0.19922  0.20215  0.14787  0.0000
C4  C  1.0000  0.26142  0.12951  0.14884  0.0000
C5  C  1.0000  0.39293  0.19176  0.14939  0.0000
C6  C  1.0000  0.46246  0.12881  0.15011  0.0000
C7  C  1.0000  0.59580  0.20013  0.14974  0.0000
C8  C  1.0000  0.66465  0.13591  0.14964  0.0000
C9  C  1.0000  0.79746  0.20411  0.14844  0.0000
C10  C  1.0000  0.86592  0.13798  0.14910  0.0000
C11  C  1.0000  0.99523  0.40110  0.14475  0.0000
C12  C  1.0000  0.06403  0.33474  0.14561  0.0000
C13  C  1.0000  0.19884  0.40383  0.14450  0.0000
C14  C  1.0000  0.26823  0.33550  0.14597  0.0000
C15  C  1.0000  0.45665  0.32252  0.14877  0.0000
C16  C  1.0000  0.65755  0.33296  0.14819  0.0000
C17  C  1.0000  0.79162  0.40438  0.14505  0.0000
C18  C  1.0000  0.86095  0.33734  0.14597  0.0000
C19  C  1.0000  -0.00588  0.60082  0.14351  0.0000
C20  C  1.0000  0.06162  0.53321  0.14387  0.0000
C21  C  1.0000  0.19738  0.59379  0.14357  0.0000
C22  C  1.0000  0.85853  0.53943  0.14233  0.0000
C23  C  1.0000  -0.00144  0.80106  0.14675  0.0000
C24  C  1.0000  0.06555  0.73355  0.14484  0.0000
C25  C  1.0000  0.20061  0.79627  0.14571  0.0000
C26  C  1.0000  0.26961  0.72924  0.14459  0.0000
C27  C  1.0000  0.40638  0.79707  0.14596  0.0000
C28  C  1.0000  0.60256  0.80739  0.14863  0.0000
C29  C  1.0000  0.80079  0.80625  0.14868  0.0000
C30  C  1.0000  0.86491  0.73612  0.14519  0.0000
C31  C  1.0000  0.00065  0.00303  0.14920  0.0000
C32  C  1.0000  0.06453  0.93354  0.14866  0.0000
C33  C  1.0000  0.19714  0.99713  0.14875  0.0000
C34  C  1.0000  0.26471  0.93003  0.14800  0.0000
C35  C  1.0000  0.39770  0.99599  0.14918  0.0000
C36  C  1.0000  0.46654  0.93094  0.14854  0.0000
C37  C  1.0000  0.59969  0.00259  0.14979  0.0000
C38  C  1.0000  0.66928  0.93987  0.15022  0.0000
C39  C  1.0000  0.80159  0.00601  0.15032  0.0000
C40  C  1.0000  0.86785  0.93808  0.14986  0.0000
N1  N  1.0000  0.58526  0.39030  0.14888  0.0000
N2  N  1.0000  0.79484  0.60673  0.13953  0.0000
N3  N  1.0000  0.66992  0.74307  0.14856  0.0000
N4  N  1.0000  0.39960  0.39462  0.14615  0.0000
N5  N  1.0000  0.25976  0.52944  0.14296  0.0000
N6  N  1.0000  0.47788  0.73891  0.14543  0.0000
Ag1  Ag  1.0000  0.59849  0.56033  -0.01423  0.0000
Zr1  Zr  1.0000  0.58322  0.55461  0.12036  0.0000
