data_CNAu
_audit_creation_method           'pos2cif.pl'
_cell_length_a               12.3170003891
_cell_length_b               12.3170003891315
_cell_length_c               20
_cell_angle_alpha            90
_cell_angle_beta             90
_cell_angle_gamma            120.010002136348
_symmetry_space_group_H-M        'P1'
_symmetry_Int_Tables_number      '1'
_symmetry_cell_setting           'triclinic'
loop_
_symmetry_equiv_pos_as_xyz
x,y,z

loop_
_atom_site_label
_atom_site_type_symbol
_atom_site_occupancy
_atom_site_fract_x
_atom_site_fract_y
_atom_site_fract_z
_atom_site_U_iso_or_equiv
C1  C  1.0000  0.99726  0.19893  0.14126  0.0000
C2  C  1.0000  0.06411  0.13227  0.14039  0.0000
C3  C  1.0000  0.19487  0.19431  0.14092  0.0000
C4  C  1.0000  0.26272  0.12812  0.14116  0.0000
C5  C  1.0000  0.39419  0.19334  0.14236  0.0000
C6  C  1.0000  0.46471  0.13066  0.14302  0.0000
C7  C  1.0000  0.59755  0.20216  0.14370  0.0000
C8  C  1.0000  0.66611  0.13631  0.14348  0.0000
C9  C  1.0000  0.79825  0.20345  0.14303  0.0000
C10  C  1.0000  0.86582  0.13652  0.14189  0.0000
C11  C  1.0000  0.99475  0.39917  0.14355  0.0000
C12  C  1.0000  0.05973  0.32968  0.14246  0.0000
C13  C  1.0000  0.19050  0.39199  0.14292  0.0000
C14  C  1.0000  0.25712  0.32423  0.14237  0.0000
C15  C  1.0000  0.45483  0.32394  0.14348  0.0000
C16  C  1.0000  0.65835  0.33538  0.14422  0.0000
C17  C  1.0000  0.79383  0.40557  0.14430  0.0000
C18  C  1.0000  0.86183  0.33690  0.14364  0.0000
C19  C  1.0000  0.00194  0.60157  0.14411  0.0000
C20  C  1.0000  0.06544  0.53223  0.14413  0.0000
C21  C  1.0000  0.19942  0.59366  0.14427  0.0000
C22  C  1.0000  0.86796  0.54014  0.14435  0.0000
C23  C  1.0000  0.00765  0.80411  0.14234  0.0000
C24  C  1.0000  0.07263  0.73463  0.14335  0.0000
C25  C  1.0000  0.20555  0.79690  0.14336  0.0000
C26  C  1.0000  0.27354  0.72822  0.14425  0.0000
C27  C  1.0000  0.40903  0.79842  0.14442  0.0000
C28  C  1.0000  0.61254  0.80987  0.14424  0.0000
C29  C  1.0000  0.81026  0.80956  0.14293  0.0000
C30  C  1.0000  0.87687  0.74180  0.14316  0.0000
C31  C  1.0000  0.00326  0.00152  0.14046  0.0000
C32  C  1.0000  0.07011  0.93485  0.14094  0.0000
C33  C  1.0000  0.20156  0.99728  0.14119  0.0000
C34  C  1.0000  0.26914  0.93035  0.14246  0.0000
C35  C  1.0000  0.40127  0.99750  0.14308  0.0000
C36  C  1.0000  0.46983  0.93165  0.14386  0.0000
C37  C  1.0000  0.60267  0.00315  0.14362  0.0000
C38  C  1.0000  0.67319  0.94047  0.14330  0.0000
C39  C  1.0000  0.80466  0.00567  0.14204  0.0000
C40  C  1.0000  0.87250  0.93948  0.14152  0.0000
N1  N  1.0000  0.58218  0.39021  0.14456  0.0000
N2  N  1.0000  0.81410  0.61311  0.14435  0.0000
N3  N  1.0000  0.68045  0.74837  0.14437  0.0000
N4  N  1.0000  0.38692  0.38543  0.14368  0.0000
N5  N  1.0000  0.25327  0.52068  0.14411  0.0000
N6  N  1.0000  0.48518  0.74358  0.14503  0.0000
Au1  Au  1.0000  0.43299  0.56312  0.14508  0.0000
Au2  Au  1.0000  0.63437  0.57067  0.14522  0.0000
