data_CNAuCd
_audit_creation_method           'pos2cif.pl'
_cell_length_a               12.3170003891
_cell_length_b               12.3170003891315
_cell_length_c               20
_cell_angle_alpha            90
_cell_angle_beta             90
_cell_angle_gamma            120.010002136348
_symmetry_space_group_H-M        'P1'
_symmetry_Int_Tables_number      '1'
_symmetry_cell_setting           'triclinic'
loop_
_symmetry_equiv_pos_as_xyz
x,y,z

loop_
_atom_site_label
_atom_site_type_symbol
_atom_site_occupancy
_atom_site_fract_x
_atom_site_fract_y
_atom_site_fract_z
_atom_site_U_iso_or_equiv
C1  C  1.0000  -0.00175  0.19997  0.12841  0.0000
C2  C  1.0000  0.06505  0.13287  0.12566  0.0000
C3  C  1.0000  0.19715  0.19652  0.13030  0.0000
C4  C  1.0000  0.26378  0.12882  0.13195  0.0000
C5  C  1.0000  0.39522  0.19437  0.13854  0.0000
C6  C  1.0000  0.46471  0.13066  0.13964  0.0000
C7  C  1.0000  0.59760  0.20100  0.14307  0.0000
C8  C  1.0000  0.66631  0.13638  0.13970  0.0000
C9  C  1.0000  0.79889  0.20382  0.13682  0.0000
C10  C  1.0000  0.86626  0.13705  0.13080  0.0000
C11  C  1.0000  0.99597  0.39990  0.13776  0.0000
C12  C  1.0000  0.06217  0.33148  0.13256  0.0000
C13  C  1.0000  0.19461  0.39592  0.13572  0.0000
C14  C  1.0000  0.26211  0.32692  0.13961  0.0000
C15  C  1.0000  0.45832  0.32511  0.15079  0.0000
C16  C  1.0000  0.65746  0.33361  0.15068  0.0000
C17  C  1.0000  0.79368  0.40470  0.14891  0.0000
C18  C  1.0000  0.86202  0.33722  0.14084  0.0000
C19  C  1.0000  0.00054  0.60109  0.14322  0.0000
C20  C  1.0000  0.06549  0.53256  0.14095  0.0000
C21  C  1.0000  0.20016  0.59356  0.14211  0.0000
C22  C  1.0000  0.86654  0.54047  0.14988  0.0000
C23  C  1.0000  0.00366  0.80155  0.13496  0.0000
C24  C  1.0000  0.07066  0.73388  0.13951  0.0000
C25  C  1.0000  0.20486  0.79658  0.14032  0.0000
C26  C  1.0000  0.27375  0.72915  0.14616  0.0000
C27  C  1.0000  0.40937  0.79921  0.15189  0.0000
C28  C  1.0000  0.61266  0.81100  0.15155  0.0000
C29  C  1.0000  0.80333  0.80616  0.14038  0.0000
C30  C  1.0000  0.87139  0.73694  0.14233  0.0000
C31  C  1.0000  0.00179  0.00062  0.12595  0.0000
C32  C  1.0000  0.06817  0.93317  0.12859  0.0000
C33  C  1.0000  0.20050  0.99661  0.13075  0.0000
C34  C  1.0000  0.26809  0.92991  0.13663  0.0000
C35  C  1.0000  0.40067  0.99712  0.13919  0.0000
C36  C  1.0000  0.46956  0.93239  0.14418  0.0000
C37  C  1.0000  0.60251  0.00353  0.14121  0.0000
C38  C  1.0000  0.67233  0.94067  0.13954  0.0000
C39  C  1.0000  0.80332  0.00493  0.13178  0.0000
C40  C  1.0000  0.86982  0.93699  0.13055  0.0000
N1  N  1.0000  0.58403  0.38849  0.15945  0.0000
N2  N  1.0000  0.80952  0.61123  0.15523  0.0000
N3  N  1.0000  0.67710  0.74798  0.15199  0.0000
N4  N  1.0000  0.38871  0.38521  0.15647  0.0000
N5  N  1.0000  0.25663  0.52359  0.13912  0.0000
N6  N  1.0000  0.48596  0.74740  0.16458  0.0000
Au1  Au  1.0000  0.43577  0.56329  0.17699  0.0000
Cd1  Cd  1.0000  0.64057  0.56955  0.21470  0.0000
