data_CNAuCo
_audit_creation_method           'pos2cif.pl'
_cell_length_a               12.3170003891
_cell_length_b               12.3170003891315
_cell_length_c               20
_cell_angle_alpha            90
_cell_angle_beta             90
_cell_angle_gamma            120.010002136348
_symmetry_space_group_H-M        'P1'
_symmetry_Int_Tables_number      '1'
_symmetry_cell_setting           'triclinic'
loop_
_symmetry_equiv_pos_as_xyz
x,y,z

loop_
_atom_site_label
_atom_site_type_symbol
_atom_site_occupancy
_atom_site_fract_x
_atom_site_fract_y
_atom_site_fract_z
_atom_site_U_iso_or_equiv
C1  C  1.0000  0.99751  0.19966  0.14131  0.0000
C2  C  1.0000  0.06456  0.13269  0.14051  0.0000
C3  C  1.0000  0.19596  0.19536  0.14103  0.0000
C4  C  1.0000  0.26405  0.12906  0.14128  0.0000
C5  C  1.0000  0.39585  0.19449  0.14240  0.0000
C6  C  1.0000  0.46496  0.13047  0.14303  0.0000
C7  C  1.0000  0.59753  0.20281  0.14368  0.0000
C8  C  1.0000  0.66568  0.13640  0.14348  0.0000
C9  C  1.0000  0.79805  0.20389  0.14302  0.0000
C10  C  1.0000  0.86603  0.13721  0.14190  0.0000
C11  C  1.0000  0.99419  0.39982  0.14349  0.0000
C12  C  1.0000  0.06007  0.33079  0.14247  0.0000
C13  C  1.0000  0.19170  0.39483  0.14296  0.0000
C14  C  1.0000  0.25986  0.32589  0.14244  0.0000
C15  C  1.0000  0.45843  0.32671  0.14342  0.0000
C16  C  1.0000  0.65760  0.33721  0.14414  0.0000
C17  C  1.0000  0.79258  0.40587  0.14426  0.0000
C18  C  1.0000  0.86058  0.33740  0.14360  0.0000
C19  C  1.0000  -0.00125  0.60152  0.14412  0.0000
C20  C  1.0000  0.06313  0.53244  0.14412  0.0000
C21  C  1.0000  0.19773  0.59289  0.14426  0.0000
C22  C  1.0000  0.86394  0.54083  0.14434  0.0000
C23  C  1.0000  0.00567  0.80264  0.14237  0.0000
C24  C  1.0000  0.07147  0.73407  0.14335  0.0000
C25  C  1.0000  0.20549  0.79629  0.14336  0.0000
C26  C  1.0000  0.27363  0.72795  0.14425  0.0000
C27  C  1.0000  0.40984  0.79669  0.14440  0.0000
C28  C  1.0000  0.61413  0.80780  0.14419  0.0000
C29  C  1.0000  0.80764  0.80791  0.14292  0.0000
C30  C  1.0000  0.87406  0.73952  0.14316  0.0000
C31  C  1.0000  0.00306  0.00148  0.14058  0.0000
C32  C  1.0000  0.06966  0.93442  0.14106  0.0000
C33  C  1.0000  0.20150  0.99710  0.14130  0.0000
C34  C  1.0000  0.26898  0.92986  0.14250  0.0000
C35  C  1.0000  0.40156  0.99676  0.14308  0.0000
C36  C  1.0000  0.47011  0.93089  0.14384  0.0000
C37  C  1.0000  0.60288  0.00248  0.14363  0.0000
C38  C  1.0000  0.67374  0.93953  0.14329  0.0000
C39  C  1.0000  0.80471  0.00574  0.14204  0.0000
C40  C  1.0000  0.87162  0.93859  0.14156  0.0000
N1  N  1.0000  0.58628  0.39799  0.14438  0.0000
N2  N  1.0000  0.80499  0.61102  0.14431  0.0000
N3  N  1.0000  0.67916  0.74227  0.14425  0.0000
N4  N  1.0000  0.38896  0.38560  0.14368  0.0000
N5  N  1.0000  0.25275  0.52186  0.14405  0.0000
N6  N  1.0000  0.48634  0.74228  0.14502  0.0000
Au1  Au  1.0000  0.44149  0.56235  0.14511  0.0000
Co1  Co  1.0000  0.63858  0.56984  0.14502  0.0000
