data_CNAuCr
_audit_creation_method           'pos2cif.pl'
_cell_length_a               12.3170003891
_cell_length_b               12.3170003891315
_cell_length_c               20
_cell_angle_alpha            90
_cell_angle_beta             90
_cell_angle_gamma            120.010002136348
_symmetry_space_group_H-M        'P1'
_symmetry_Int_Tables_number      '1'
_symmetry_cell_setting           'triclinic'
loop_
_symmetry_equiv_pos_as_xyz
x,y,z

loop_
_atom_site_label
_atom_site_type_symbol
_atom_site_occupancy
_atom_site_fract_x
_atom_site_fract_y
_atom_site_fract_z
_atom_site_U_iso_or_equiv
C1  C  1.0000  0.99776  0.19960  0.14172  0.0000
C2  C  1.0000  0.06492  0.13301  0.14141  0.0000
C3  C  1.0000  0.19620  0.19570  0.14183  0.0000
C4  C  1.0000  0.26344  0.12859  0.14210  0.0000
C5  C  1.0000  0.39486  0.19314  0.14275  0.0000
C6  C  1.0000  0.46463  0.12992  0.14294  0.0000
C7  C  1.0000  0.59748  0.20124  0.14324  0.0000
C8  C  1.0000  0.66596  0.13604  0.14285  0.0000
C9  C  1.0000  0.79834  0.20358  0.14256  0.0000
C10  C  1.0000  0.86640  0.13721  0.14195  0.0000
C11  C  1.0000  0.99447  0.39950  0.14263  0.0000
C12  C  1.0000  0.06004  0.33045  0.14209  0.0000
C13  C  1.0000  0.19138  0.39472  0.14227  0.0000
C14  C  1.0000  0.26000  0.32618  0.14265  0.0000
C15  C  1.0000  0.45736  0.32463  0.14400  0.0000
C16  C  1.0000  0.65787  0.33447  0.14397  0.0000
C17  C  1.0000  0.79314  0.40490  0.14364  0.0000
C18  C  1.0000  0.86107  0.33685  0.14293  0.0000
C19  C  1.0000  -0.00023  0.60132  0.14310  0.0000
C20  C  1.0000  0.06326  0.53216  0.14295  0.0000
C21  C  1.0000  0.19707  0.59282  0.14305  0.0000
C22  C  1.0000  0.86592  0.54024  0.14352  0.0000
C23  C  1.0000  0.00608  0.80321  0.14234  0.0000
C24  C  1.0000  0.07149  0.73422  0.14279  0.0000
C25  C  1.0000  0.20527  0.79651  0.14300  0.0000
C26  C  1.0000  0.27324  0.72820  0.14360  0.0000
C27  C  1.0000  0.40931  0.79745  0.14431  0.0000
C28  C  1.0000  0.61390  0.81047  0.14445  0.0000
C29  C  1.0000  0.80804  0.80901  0.14310  0.0000
C30  C  1.0000  0.87463  0.73987  0.14295  0.0000
C31  C  1.0000  0.00349  0.00199  0.14145  0.0000
C32  C  1.0000  0.06968  0.93464  0.14180  0.0000
C33  C  1.0000  0.20124  0.99704  0.14207  0.0000
C34  C  1.0000  0.26868  0.92994  0.14269  0.0000
C35  C  1.0000  0.40115  0.99667  0.14295  0.0000
C36  C  1.0000  0.46981  0.93130  0.14346  0.0000
C37  C  1.0000  0.60272  0.00297  0.14304  0.0000
C38  C  1.0000  0.67379  0.94117  0.14289  0.0000
C39  C  1.0000  0.80495  0.00614  0.14204  0.0000
C40  C  1.0000  0.87233  0.93938  0.14192  0.0000
N1  N  1.0000  0.58513  0.39202  0.14508  0.0000
N2  N  1.0000  0.80937  0.61123  0.14385  0.0000
N3  N  1.0000  0.67937  0.74727  0.14487  0.0000
N4  N  1.0000  0.38970  0.38590  0.14444  0.0000
N5  N  1.0000  0.25105  0.52164  0.14258  0.0000
N6  N  1.0000  0.48609  0.74374  0.14577  0.0000
Au1  Au  1.0000  0.43878  0.56339  0.14671  0.0000
Cr1  Cr  1.0000  0.63636  0.56948  0.14764  0.0000
