data_CNAuCu
_audit_creation_method           'pos2cif.pl'
_cell_length_a               12.3170003891
_cell_length_b               12.3170003891315
_cell_length_c               20
_cell_angle_alpha            90
_cell_angle_beta             90
_cell_angle_gamma            120.010002136348
_symmetry_space_group_H-M        'P1'
_symmetry_Int_Tables_number      '1'
_symmetry_cell_setting           'triclinic'
loop_
_symmetry_equiv_pos_as_xyz
x,y,z

loop_
_atom_site_label
_atom_site_type_symbol
_atom_site_occupancy
_atom_site_fract_x
_atom_site_fract_y
_atom_site_fract_z
_atom_site_U_iso_or_equiv
C1  C  1.0000  0.99761  0.19947  0.14134  0.0000
C2  C  1.0000  0.06427  0.13232  0.14053  0.0000
C3  C  1.0000  0.19567  0.19503  0.14104  0.0000
C4  C  1.0000  0.26332  0.12843  0.14127  0.0000
C5  C  1.0000  0.39492  0.19355  0.14238  0.0000
C6  C  1.0000  0.46472  0.13049  0.14302  0.0000
C7  C  1.0000  0.59748  0.20216  0.14367  0.0000
C8  C  1.0000  0.66588  0.13659  0.14347  0.0000
C9  C  1.0000  0.79830  0.20386  0.14302  0.0000
C10  C  1.0000  0.86613  0.13716  0.14191  0.0000
C11  C  1.0000  0.99477  0.39958  0.14349  0.0000
C12  C  1.0000  0.06047  0.33057  0.14247  0.0000
C13  C  1.0000  0.19208  0.39418  0.14292  0.0000
C14  C  1.0000  0.25987  0.32553  0.14243  0.0000
C15  C  1.0000  0.45751  0.32521  0.14342  0.0000
C16  C  1.0000  0.65765  0.33618  0.14414  0.0000
C17  C  1.0000  0.79298  0.40548  0.14426  0.0000
C18  C  1.0000  0.86115  0.33728  0.14360  0.0000
C19  C  1.0000  0.00037  0.60146  0.14408  0.0000
C20  C  1.0000  0.06433  0.53239  0.14410  0.0000
C21  C  1.0000  0.19868  0.59305  0.14421  0.0000
C22  C  1.0000  0.86586  0.54090  0.14432  0.0000
C23  C  1.0000  0.00582  0.80289  0.14237  0.0000
C24  C  1.0000  0.07150  0.73418  0.14332  0.0000
C25  C  1.0000  0.20535  0.79654  0.14334  0.0000
C26  C  1.0000  0.27360  0.72842  0.14421  0.0000
C27  C  1.0000  0.40943  0.79813  0.14441  0.0000
C28  C  1.0000  0.61323  0.80969  0.14418  0.0000
C29  C  1.0000  0.80643  0.80723  0.14295  0.0000
C30  C  1.0000  0.87402  0.73908  0.14319  0.0000
C31  C  1.0000  0.00255  0.00108  0.14061  0.0000
C32  C  1.0000  0.06932  0.93424  0.14107  0.0000
C33  C  1.0000  0.20104  0.99689  0.14130  0.0000
C34  C  1.0000  0.26862  0.92996  0.14250  0.0000
C35  C  1.0000  0.40114  0.99711  0.14307  0.0000
C36  C  1.0000  0.46983  0.93188  0.14382  0.0000
C37  C  1.0000  0.60270  0.00322  0.14359  0.0000
C38  C  1.0000  0.67347  0.94076  0.14325  0.0000
C39  C  1.0000  0.80458  0.00583  0.14203  0.0000
C40  C  1.0000  0.87112  0.93819  0.14159  0.0000
N1  N  1.0000  0.58446  0.39353  0.14436  0.0000
N2  N  1.0000  0.80928  0.61136  0.14433  0.0000
N3  N  1.0000  0.67763  0.74481  0.14423  0.0000
N4  N  1.0000  0.38924  0.38536  0.14372  0.0000
N5  N  1.0000  0.25319  0.52161  0.14392  0.0000
N6  N  1.0000  0.48576  0.74433  0.14506  0.0000
Au1  Au  1.0000  0.44144  0.56416  0.14524  0.0000
Cu1  Cu  1.0000  0.63827  0.56979  0.14520  0.0000
