data_CNAuFe
_audit_creation_method           'pos2cif.pl'
_cell_length_a               12.3170003891
_cell_length_b               12.3170003891315
_cell_length_c               20
_cell_angle_alpha            90
_cell_angle_beta             90
_cell_angle_gamma            120.010002136348
_symmetry_space_group_H-M        'P1'
_symmetry_Int_Tables_number      '1'
_symmetry_cell_setting           'triclinic'
loop_
_symmetry_equiv_pos_as_xyz
x,y,z

loop_
_atom_site_label
_atom_site_type_symbol
_atom_site_occupancy
_atom_site_fract_x
_atom_site_fract_y
_atom_site_fract_z
_atom_site_U_iso_or_equiv
C1  C  1.0000  0.99757  0.19960  0.14130  0.0000
C2  C  1.0000  0.06465  0.13288  0.14048  0.0000
C3  C  1.0000  0.19596  0.19548  0.14100  0.0000
C4  C  1.0000  0.26373  0.12891  0.14127  0.0000
C5  C  1.0000  0.39544  0.19407  0.14238  0.0000
C6  C  1.0000  0.46486  0.13030  0.14301  0.0000
C7  C  1.0000  0.59749  0.20217  0.14368  0.0000
C8  C  1.0000  0.66571  0.13615  0.14348  0.0000
C9  C  1.0000  0.79810  0.20372  0.14302  0.0000
C10  C  1.0000  0.86606  0.13711  0.14190  0.0000
C11  C  1.0000  0.99428  0.39962  0.14349  0.0000
C12  C  1.0000  0.06009  0.33066  0.14244  0.0000
C13  C  1.0000  0.19157  0.39448  0.14289  0.0000
C14  C  1.0000  0.25950  0.32589  0.14241  0.0000
C15  C  1.0000  0.45766  0.32573  0.14342  0.0000
C16  C  1.0000  0.65783  0.33626  0.14415  0.0000
C17  C  1.0000  0.79276  0.40558  0.14429  0.0000
C18  C  1.0000  0.86083  0.33714  0.14362  0.0000
C19  C  1.0000  -0.00082  0.60151  0.14414  0.0000
C20  C  1.0000  0.06329  0.53241  0.14411  0.0000
C21  C  1.0000  0.19767  0.59290  0.14422  0.0000
C22  C  1.0000  0.86457  0.54066  0.14437  0.0000
C23  C  1.0000  0.00608  0.80314  0.14236  0.0000
C24  C  1.0000  0.07154  0.73424  0.14336  0.0000
C25  C  1.0000  0.20537  0.79644  0.14336  0.0000
C26  C  1.0000  0.27349  0.72804  0.14425  0.0000
C27  C  1.0000  0.40955  0.79694  0.14446  0.0000
C28  C  1.0000  0.61401  0.80861  0.14421  0.0000
C29  C  1.0000  0.80822  0.80846  0.14289  0.0000
C30  C  1.0000  0.87463  0.74028  0.14316  0.0000
C31  C  1.0000  0.00328  0.00173  0.14054  0.0000
C32  C  1.0000  0.06978  0.93466  0.14103  0.0000
C33  C  1.0000  0.20151  0.99725  0.14128  0.0000
C34  C  1.0000  0.26887  0.92996  0.14249  0.0000
C35  C  1.0000  0.40141  0.99680  0.14307  0.0000
C36  C  1.0000  0.46995  0.93097  0.14384  0.0000
C37  C  1.0000  0.60275  0.00249  0.14360  0.0000
C38  C  1.0000  0.67363  0.93985  0.14325  0.0000
C39  C  1.0000  0.80485  0.00585  0.14200  0.0000
C40  C  1.0000  0.87207  0.93911  0.14152  0.0000
N1  N  1.0000  0.58559  0.39569  0.14434  0.0000
N2  N  1.0000  0.80664  0.61141  0.14436  0.0000
N3  N  1.0000  0.67947  0.74406  0.14424  0.0000
N4  N  1.0000  0.38914  0.38570  0.14374  0.0000
N5  N  1.0000  0.25253  0.52187  0.14397  0.0000
N6  N  1.0000  0.48618  0.74267  0.14517  0.0000
Au1  Au  1.0000  0.44027  0.56255  0.14537  0.0000
Fe1  Fe  1.0000  0.63741  0.56916  0.14503  0.0000
