data_CNAuHf
_audit_creation_method           'pos2cif.pl'
_cell_length_a               12.3170003891
_cell_length_b               12.3170003891315
_cell_length_c               20
_cell_angle_alpha            90
_cell_angle_beta             90
_cell_angle_gamma            120.010002136348
_symmetry_space_group_H-M        'P1'
_symmetry_Int_Tables_number      '1'
_symmetry_cell_setting           'triclinic'
loop_
_symmetry_equiv_pos_as_xyz
x,y,z

loop_
_atom_site_label
_atom_site_type_symbol
_atom_site_occupancy
_atom_site_fract_x
_atom_site_fract_y
_atom_site_fract_z
_atom_site_U_iso_or_equiv
C1  C  1.0000  -0.00212  0.19946  0.12875  0.0000
C2  C  1.0000  0.06451  0.13247  0.12688  0.0000
C3  C  1.0000  0.19650  0.19607  0.12759  0.0000
C4  C  1.0000  0.26371  0.12884  0.13115  0.0000
C5  C  1.0000  0.39547  0.19437  0.13695  0.0000
C6  C  1.0000  0.46443  0.13023  0.14159  0.0000
C7  C  1.0000  0.59765  0.20179  0.14462  0.0000
C8  C  1.0000  0.66615  0.13601  0.14313  0.0000
C9  C  1.0000  0.79831  0.20315  0.13891  0.0000
C10  C  1.0000  0.86625  0.13641  0.13507  0.0000
C11  C  1.0000  0.99510  0.39950  0.13455  0.0000
C12  C  1.0000  0.06132  0.33088  0.12899  0.0000
C13  C  1.0000  0.19315  0.39561  0.12914  0.0000
C14  C  1.0000  0.26055  0.32676  0.13099  0.0000
C15  C  1.0000  0.45745  0.32572  0.14373  0.0000
C16  C  1.0000  0.65837  0.33411  0.14890  0.0000
C17  C  1.0000  0.79371  0.40453  0.14590  0.0000
C18  C  1.0000  0.86187  0.33638  0.13912  0.0000
C19  C  1.0000  -0.00108  0.60048  0.14218  0.0000
C20  C  1.0000  0.06399  0.53205  0.13778  0.0000
C21  C  1.0000  0.19863  0.59332  0.13824  0.0000
C22  C  1.0000  0.86566  0.53864  0.14694  0.0000
C23  C  1.0000  0.00411  0.80231  0.14000  0.0000
C24  C  1.0000  0.07053  0.73395  0.14123  0.0000
C25  C  1.0000  0.20397  0.79622  0.14152  0.0000
C26  C  1.0000  0.27280  0.72790  0.14467  0.0000
C27  C  1.0000  0.40846  0.79788  0.15141  0.0000
C28  C  1.0000  0.61312  0.81170  0.15881  0.0000
C29  C  1.0000  0.80772  0.80875  0.15061  0.0000
C30  C  1.0000  0.87239  0.73956  0.14699  0.0000
C31  C  1.0000  0.00203  0.00089  0.13157  0.0000
C32  C  1.0000  0.06827  0.93344  0.13361  0.0000
C33  C  1.0000  0.20074  0.99689  0.13321  0.0000
C34  C  1.0000  0.26811  0.93000  0.13901  0.0000
C35  C  1.0000  0.40064  0.99714  0.14221  0.0000
C36  C  1.0000  0.46940  0.93142  0.14766  0.0000
C37  C  1.0000  0.60227  0.00295  0.14662  0.0000
C38  C  1.0000  0.67331  0.94074  0.14867  0.0000
C39  C  1.0000  0.80474  0.00581  0.14114  0.0000
C40  C  1.0000  0.87154  0.93868  0.14016  0.0000
N1  N  1.0000  0.58463  0.39264  0.15576  0.0000
N2  N  1.0000  0.80593  0.60906  0.15378  0.0000
N3  N  1.0000  0.68000  0.74857  0.16574  0.0000
N4  N  1.0000  0.39022  0.38703  0.14120  0.0000
N5  N  1.0000  0.25501  0.52340  0.13291  0.0000
N6  N  1.0000  0.48552  0.74457  0.16113  0.0000
Au1  Au  1.0000  0.43958  0.56294  0.15881  0.0000
Hf1  Hf  1.0000  0.64244  0.56994  0.20240  0.0000
