data_CNAuHg
_audit_creation_method           'pos2cif.pl'
_cell_length_a               12.3170003891
_cell_length_b               12.3170003891315
_cell_length_c               20
_cell_angle_alpha            90
_cell_angle_beta             90
_cell_angle_gamma            120.010002136348
_symmetry_space_group_H-M        'P1'
_symmetry_Int_Tables_number      '1'
_symmetry_cell_setting           'triclinic'
loop_
_symmetry_equiv_pos_as_xyz
x,y,z

loop_
_atom_site_label
_atom_site_type_symbol
_atom_site_occupancy
_atom_site_fract_x
_atom_site_fract_y
_atom_site_fract_z
_atom_site_U_iso_or_equiv
C1  C  1.0000  -0.00129  0.19897  0.14582  0.0000
C2  C  1.0000  0.06430  0.13071  0.14506  0.0000
C3  C  1.0000  0.19729  0.19526  0.14791  0.0000
C4  C  1.0000  0.26354  0.12745  0.14590  0.0000
C5  C  1.0000  0.39557  0.19360  0.14732  0.0000
C6  C  1.0000  0.46457  0.12998  0.14367  0.0000
C7  C  1.0000  0.59745  0.20105  0.14432  0.0000
C8  C  1.0000  0.66642  0.13685  0.14078  0.0000
C9  C  1.0000  0.79915  0.20327  0.14333  0.0000
C10  C  1.0000  0.86705  0.13676  0.14245  0.0000
C11  C  1.0000  0.99690  0.39951  0.14529  0.0000
C12  C  1.0000  0.06318  0.33088  0.14699  0.0000
C13  C  1.0000  0.19602  0.39601  0.14803  0.0000
C14  C  1.0000  0.26560  0.32731  0.15111  0.0000
C15  C  1.0000  0.46283  0.32683  0.15236  0.0000
C16  C  1.0000  0.65700  0.33493  0.14813  0.0000
C17  C  1.0000  0.79388  0.40410  0.14453  0.0000
C18  C  1.0000  0.86211  0.33687  0.14509  0.0000
C19  C  1.0000  0.00025  0.59987  0.13939  0.0000
C20  C  1.0000  0.06611  0.53184  0.14293  0.0000
C21  C  1.0000  0.20115  0.59288  0.14132  0.0000
C22  C  1.0000  0.86513  0.53933  0.13862  0.0000
C23  C  1.0000  0.00081  0.79868  0.13595  0.0000
C24  C  1.0000  0.06900  0.73207  0.13739  0.0000
C25  C  1.0000  0.20411  0.79539  0.13745  0.0000
C26  C  1.0000  0.27318  0.72834  0.13644  0.0000
C27  C  1.0000  0.40896  0.79927  0.13222  0.0000
C28  C  1.0000  0.61206  0.81328  0.12298  0.0000
C29  C  1.0000  0.79670  0.80049  0.12800  0.0000
C30  C  1.0000  0.86601  0.72972  0.13103  0.0000
C31  C  1.0000  -0.00028  -0.00176  0.14057  0.0000
C32  C  1.0000  0.06626  0.93090  0.13938  0.0000
C33  C  1.0000  0.19890  0.99490  0.14164  0.0000
C34  C  1.0000  0.26721  0.92880  0.13908  0.0000
C35  C  1.0000  0.40009  0.99680  0.13927  0.0000
C36  C  1.0000  0.46937  0.93300  0.13486  0.0000
C37  C  1.0000  0.60250  0.00469  0.13472  0.0000
C38  C  1.0000  0.67332  0.94319  0.12998  0.0000
C39  C  1.0000  0.80394  0.00498  0.13588  0.0000
C40  C  1.0000  0.86693  0.93365  0.13554  0.0000
N1  N  1.0000  0.58823  0.39342  0.15397  0.0000
N2  N  1.0000  0.80390  0.60457  0.13180  0.0000
N3  N  1.0000  0.67050  0.74432  0.11886  0.0000
N4  N  1.0000  0.39445  0.38863  0.15474  0.0000
N5  N  1.0000  0.25732  0.52218  0.14430  0.0000
N6  N  1.0000  0.48409  0.74637  0.12513  0.0000
Au1  Au  1.0000  0.45810  0.57410  0.14743  0.0000
Hg1  Hg  1.0000  0.63718  0.59691  0.27300  0.0000
