data_CNAuIr
_audit_creation_method           'pos2cif.pl'
_cell_length_a               12.3170003891
_cell_length_b               12.3170003891315
_cell_length_c               20
_cell_angle_alpha            90
_cell_angle_beta             90
_cell_angle_gamma            120.010002136348
_symmetry_space_group_H-M        'P1'
_symmetry_Int_Tables_number      '1'
_symmetry_cell_setting           'triclinic'
loop_
_symmetry_equiv_pos_as_xyz
x,y,z

loop_
_atom_site_label
_atom_site_type_symbol
_atom_site_occupancy
_atom_site_fract_x
_atom_site_fract_y
_atom_site_fract_z
_atom_site_U_iso_or_equiv
C1  C  1.0000  0.99707  0.19968  0.14126  0.0000
C2  C  1.0000  0.06464  0.13316  0.14042  0.0000
C3  C  1.0000  0.19565  0.19495  0.14095  0.0000
C4  C  1.0000  0.26336  0.12820  0.14118  0.0000
C5  C  1.0000  0.39454  0.19260  0.14235  0.0000
C6  C  1.0000  0.46452  0.12948  0.14298  0.0000
C7  C  1.0000  0.59706  0.20119  0.14364  0.0000
C8  C  1.0000  0.66557  0.13587  0.14344  0.0000
C9  C  1.0000  0.79784  0.20403  0.14300  0.0000
C10  C  1.0000  0.86591  0.13769  0.14186  0.0000
C11  C  1.0000  0.99376  0.39993  0.14349  0.0000
C12  C  1.0000  0.05882  0.33030  0.14243  0.0000
C13  C  1.0000  0.18996  0.39405  0.14293  0.0000
C14  C  1.0000  0.25900  0.32515  0.14244  0.0000
C15  C  1.0000  0.45578  0.32367  0.14350  0.0000
C16  C  1.0000  0.65707  0.33461  0.14418  0.0000
C17  C  1.0000  0.79247  0.40578  0.14427  0.0000
C18  C  1.0000  0.86006  0.33755  0.14359  0.0000
C19  C  1.0000  -0.00002  0.60197  0.14411  0.0000
C20  C  1.0000  0.06298  0.53227  0.14412  0.0000
C21  C  1.0000  0.19687  0.59264  0.14424  0.0000
C22  C  1.0000  0.86609  0.54128  0.14435  0.0000
C23  C  1.0000  0.00799  0.80401  0.14232  0.0000
C24  C  1.0000  0.07261  0.73434  0.14331  0.0000
C25  C  1.0000  0.20639  0.79628  0.14334  0.0000
C26  C  1.0000  0.27393  0.72778  0.14425  0.0000
C27  C  1.0000  0.41010  0.79676  0.14442  0.0000
C28  C  1.0000  0.61446  0.80933  0.14425  0.0000
C29  C  1.0000  0.81048  0.81121  0.14295  0.0000
C30  C  1.0000  0.87754  0.74211  0.14316  0.0000
C31  C  1.0000  0.00422  0.00254  0.14046  0.0000
C32  C  1.0000  0.07077  0.93536  0.14095  0.0000
C33  C  1.0000  0.20189  0.99688  0.14120  0.0000
C34  C  1.0000  0.26929  0.92954  0.14246  0.0000
C35  C  1.0000  0.40159  0.99619  0.14305  0.0000
C36  C  1.0000  0.47015  0.93076  0.14382  0.0000
C37  C  1.0000  0.60294  0.00249  0.14358  0.0000
C38  C  1.0000  0.67418  0.94062  0.14323  0.0000
C39  C  1.0000  0.80497  0.00661  0.14197  0.0000
C40  C  1.0000  0.87308  0.94050  0.14149  0.0000
N1  N  1.0000  0.58357  0.39188  0.14460  0.0000
N2  N  1.0000  0.81085  0.61404  0.14438  0.0000
N3  N  1.0000  0.68223  0.74726  0.14446  0.0000
N4  N  1.0000  0.38732  0.38454  0.14379  0.0000
N5  N  1.0000  0.24995  0.52053  0.14399  0.0000
N6  N  1.0000  0.48670  0.74299  0.14510  0.0000
Au1  Au  1.0000  0.43473  0.56155  0.14525  0.0000
Ir1  Ir  1.0000  0.63609  0.56900  0.14542  0.0000
