data_CNAuMn
_audit_creation_method           'pos2cif.pl'
_cell_length_a               12.3170003891
_cell_length_b               12.3170003891315
_cell_length_c               20
_cell_angle_alpha            90
_cell_angle_beta             90
_cell_angle_gamma            120.010002136348
_symmetry_space_group_H-M        'P1'
_symmetry_Int_Tables_number      '1'
_symmetry_cell_setting           'triclinic'
loop_
_symmetry_equiv_pos_as_xyz
x,y,z

loop_
_atom_site_label
_atom_site_type_symbol
_atom_site_occupancy
_atom_site_fract_x
_atom_site_fract_y
_atom_site_fract_z
_atom_site_U_iso_or_equiv
C1  C  1.0000  0.99783  0.19957  0.14131  0.0000
C2  C  1.0000  0.06475  0.13289  0.14050  0.0000
C3  C  1.0000  0.19603  0.19555  0.14103  0.0000
C4  C  1.0000  0.26352  0.12877  0.14126  0.0000
C5  C  1.0000  0.39522  0.19386  0.14238  0.0000
C6  C  1.0000  0.46476  0.13027  0.14302  0.0000
C7  C  1.0000  0.59766  0.20194  0.14367  0.0000
C8  C  1.0000  0.66593  0.13608  0.14346  0.0000
C9  C  1.0000  0.79826  0.20349  0.14301  0.0000
C10  C  1.0000  0.86624  0.13694  0.14190  0.0000
C11  C  1.0000  0.99470  0.39951  0.14349  0.0000
C12  C  1.0000  0.06041  0.33050  0.14245  0.0000
C13  C  1.0000  0.19176  0.39419  0.14293  0.0000
C14  C  1.0000  0.25941  0.32590  0.14242  0.0000
C15  C  1.0000  0.45733  0.32531  0.14342  0.0000
C16  C  1.0000  0.65827  0.33528  0.14414  0.0000
C17  C  1.0000  0.79337  0.40525  0.14426  0.0000
C18  C  1.0000  0.86138  0.33690  0.14360  0.0000
C19  C  1.0000  -0.00050  0.60125  0.14410  0.0000
C20  C  1.0000  0.06377  0.53227  0.14408  0.0000
C21  C  1.0000  0.19802  0.59315  0.14422  0.0000
C22  C  1.0000  0.86545  0.54001  0.14435  0.0000
C23  C  1.0000  0.00577  0.80310  0.14234  0.0000
C24  C  1.0000  0.07140  0.73424  0.14334  0.0000
C25  C  1.0000  0.20489  0.79642  0.14335  0.0000
C26  C  1.0000  0.27318  0.72807  0.14424  0.0000
C27  C  1.0000  0.40911  0.79752  0.14441  0.0000
C28  C  1.0000  0.61363  0.80963  0.14419  0.0000
C29  C  1.0000  0.80834  0.80856  0.14290  0.0000
C30  C  1.0000  0.87435  0.74039  0.14314  0.0000
C31  C  1.0000  0.00324  0.00170  0.14055  0.0000
C32  C  1.0000  0.06952  0.93453  0.14102  0.0000
C33  C  1.0000  0.20132  0.99723  0.14129  0.0000
C34  C  1.0000  0.26868  0.93006  0.14250  0.0000
C35  C  1.0000  0.40117  0.99701  0.14308  0.0000
C36  C  1.0000  0.46978  0.93122  0.14384  0.0000
C37  C  1.0000  0.60262  0.00269  0.14359  0.0000
C38  C  1.0000  0.67357  0.94037  0.14326  0.0000
C39  C  1.0000  0.80497  0.00595  0.14203  0.0000
C40  C  1.0000  0.87208  0.93910  0.14154  0.0000
N1  N  1.0000  0.58537  0.39393  0.14441  0.0000
N2  N  1.0000  0.80742  0.61088  0.14438  0.0000
N3  N  1.0000  0.67874  0.74504  0.14428  0.0000
N4  N  1.0000  0.38953  0.38620  0.14369  0.0000
N5  N  1.0000  0.25290  0.52185  0.14403  0.0000
N6  N  1.0000  0.48593  0.74343  0.14504  0.0000
Au1  Au  1.0000  0.43946  0.56375  0.14519  0.0000
Mn1  Mn  1.0000  0.63651  0.56942  0.14530  0.0000
