data_CNAuMo
_audit_creation_method           'pos2cif.pl'
_cell_length_a               12.3170003891
_cell_length_b               12.3170003891315
_cell_length_c               20
_cell_angle_alpha            90
_cell_angle_beta             90
_cell_angle_gamma            120.010002136348
_symmetry_space_group_H-M        'P1'
_symmetry_Int_Tables_number      '1'
_symmetry_cell_setting           'triclinic'
loop_
_symmetry_equiv_pos_as_xyz
x,y,z

loop_
_atom_site_label
_atom_site_type_symbol
_atom_site_occupancy
_atom_site_fract_x
_atom_site_fract_y
_atom_site_fract_z
_atom_site_U_iso_or_equiv
C1  C  1.0000  0.99759  0.19946  0.12972  0.0000
C2  C  1.0000  0.06414  0.13217  0.12728  0.0000
C3  C  1.0000  0.19604  0.19544  0.12392  0.0000
C4  C  1.0000  0.26339  0.12820  0.12735  0.0000
C5  C  1.0000  0.39521  0.19348  0.13148  0.0000
C6  C  1.0000  0.46441  0.12977  0.13797  0.0000
C7  C  1.0000  0.59744  0.20113  0.14197  0.0000
C8  C  1.0000  0.66609  0.13583  0.14371  0.0000
C9  C  1.0000  0.79843  0.20355  0.14053  0.0000
C10  C  1.0000  0.86646  0.13696  0.13809  0.0000
C11  C  1.0000  0.99483  0.39974  0.13438  0.0000
C12  C  1.0000  0.06068  0.33088  0.12752  0.0000
C13  C  1.0000  0.19254  0.39557  0.12343  0.0000
C14  C  1.0000  0.26078  0.32670  0.12418  0.0000
C15  C  1.0000  0.45735  0.32515  0.13702  0.0000
C16  C  1.0000  0.65775  0.33362  0.14677  0.0000
C17  C  1.0000  0.79340  0.40500  0.14780  0.0000
C18  C  1.0000  0.86155  0.33709  0.14026  0.0000
C19  C  1.0000  -0.00076  0.60087  0.14477  0.0000
C20  C  1.0000  0.06386  0.53231  0.13741  0.0000
C21  C  1.0000  0.19840  0.59333  0.13461  0.0000
C22  C  1.0000  0.86583  0.53975  0.15228  0.0000
C23  C  1.0000  0.00486  0.80275  0.14479  0.0000
C24  C  1.0000  0.07103  0.73397  0.14362  0.0000
C25  C  1.0000  0.20472  0.79607  0.14114  0.0000
C26  C  1.0000  0.27350  0.72780  0.14246  0.0000
C27  C  1.0000  0.40923  0.79752  0.15061  0.0000
C28  C  1.0000  0.61416  0.81197  0.16458  0.0000
C29  C  1.0000  0.80910  0.81051  0.16024  0.0000
C30  C  1.0000  0.87460  0.74090  0.15649  0.0000
C31  C  1.0000  0.00216  0.00096  0.13499  0.0000
C32  C  1.0000  0.06853  0.93364  0.13607  0.0000
C33  C  1.0000  0.20063  0.99638  0.13224  0.0000
C34  C  1.0000  0.26842  0.92968  0.13784  0.0000
C35  C  1.0000  0.40098  0.99660  0.14039  0.0000
C36  C  1.0000  0.46965  0.93125  0.14772  0.0000
C37  C  1.0000  0.60266  0.00289  0.14860  0.0000
C38  C  1.0000  0.67414  0.94148  0.15379  0.0000
C39  C  1.0000  0.80526  0.00656  0.14652  0.0000
C40  C  1.0000  0.87215  0.93922  0.14654  0.0000
N1  N  1.0000  0.58308  0.39005  0.15201  0.0000
N2  N  1.0000  0.80943  0.61150  0.16485  0.0000
N3  N  1.0000  0.68183  0.75079  0.17562  0.0000
N4  N  1.0000  0.39061  0.38735  0.13205  0.0000
N5  N  1.0000  0.25396  0.52350  0.12463  0.0000
N6  N  1.0000  0.48594  0.74427  0.16132  0.0000
Au1  Au  1.0000  0.43893  0.56454  0.14856  0.0000
Mo1  Mo  1.0000  0.63207  0.56300  0.19183  0.0000
