data_CNAuNb
_audit_creation_method           'pos2cif.pl'
_cell_length_a               12.3170003891
_cell_length_b               12.3170003891315
_cell_length_c               20
_cell_angle_alpha            90
_cell_angle_beta             90
_cell_angle_gamma            120.010002136348
_symmetry_space_group_H-M        'P1'
_symmetry_Int_Tables_number      '1'
_symmetry_cell_setting           'triclinic'
loop_
_symmetry_equiv_pos_as_xyz
x,y,z

loop_
_atom_site_label
_atom_site_type_symbol
_atom_site_occupancy
_atom_site_fract_x
_atom_site_fract_y
_atom_site_fract_z
_atom_site_U_iso_or_equiv
C1  C  1.0000  -0.00240  0.19935  0.12887  0.0000
C2  C  1.0000  0.06404  0.13211  0.12636  0.0000
C3  C  1.0000  0.19607  0.19562  0.12475  0.0000
C4  C  1.0000  0.26356  0.12853  0.12833  0.0000
C5  C  1.0000  0.39538  0.19413  0.13353  0.0000
C6  C  1.0000  0.46441  0.13021  0.13972  0.0000
C7  C  1.0000  0.59765  0.20211  0.14356  0.0000
C8  C  1.0000  0.66623  0.13619  0.14420  0.0000
C9  C  1.0000  0.79835  0.20349  0.14027  0.0000
C10  C  1.0000  0.86625  0.13659  0.13687  0.0000
C11  C  1.0000  0.99494  0.39972  0.13464  0.0000
C12  C  1.0000  0.06093  0.33086  0.12808  0.0000
C13  C  1.0000  0.19279  0.39538  0.12597  0.0000
C14  C  1.0000  0.26038  0.32657  0.12625  0.0000
C15  C  1.0000  0.45763  0.32604  0.13899  0.0000
C16  C  1.0000  0.65800  0.33472  0.14750  0.0000
C17  C  1.0000  0.79363  0.40527  0.14699  0.0000
C18  C  1.0000  0.86164  0.33697  0.13998  0.0000
C19  C  1.0000  -0.00130  0.60069  0.14398  0.0000
C20  C  1.0000  0.06385  0.53219  0.13775  0.0000
C21  C  1.0000  0.19883  0.59344  0.13660  0.0000
C22  C  1.0000  0.86522  0.53947  0.15045  0.0000
C23  C  1.0000  0.00435  0.80240  0.14199  0.0000
C24  C  1.0000  0.07087  0.73403  0.14263  0.0000
C25  C  1.0000  0.20431  0.79611  0.14137  0.0000
C26  C  1.0000  0.27330  0.72778  0.14365  0.0000
C27  C  1.0000  0.40910  0.79766  0.15086  0.0000
C28  C  1.0000  0.61383  0.81132  0.16222  0.0000
C29  C  1.0000  0.80855  0.80917  0.15542  0.0000
C30  C  1.0000  0.87348  0.74029  0.15206  0.0000
C31  C  1.0000  0.00182  0.00064  0.13252  0.0000
C32  C  1.0000  0.06828  0.93338  0.13399  0.0000
C33  C  1.0000  0.20069  0.99659  0.13203  0.0000
C34  C  1.0000  0.26833  0.92991  0.13816  0.0000
C35  C  1.0000  0.40086  0.99703  0.14139  0.0000
C36  C  1.0000  0.46969  0.93133  0.14811  0.0000
C37  C  1.0000  0.60265  0.00297  0.14857  0.0000
C38  C  1.0000  0.67392  0.94091  0.15244  0.0000
C39  C  1.0000  0.80515  0.00614  0.14438  0.0000
C40  C  1.0000  0.87162  0.93859  0.14305  0.0000
N1  N  1.0000  0.58382  0.39281  0.15272  0.0000
N2  N  1.0000  0.80727  0.61098  0.16215  0.0000
N3  N  1.0000  0.68146  0.74868  0.17184  0.0000
N4  N  1.0000  0.39065  0.38747  0.13372  0.0000
N5  N  1.0000  0.25497  0.52336  0.12917  0.0000
N6  N  1.0000  0.48615  0.74399  0.16030  0.0000
Au1  Au  1.0000  0.44079  0.56359  0.15060  0.0000
Nb1  Nb  1.0000  0.63503  0.56435  0.20297  0.0000
