data_CNAuNi
_audit_creation_method           'pos2cif.pl'
_cell_length_a               12.3170003891
_cell_length_b               12.3170003891315
_cell_length_c               20
_cell_angle_alpha            90
_cell_angle_beta             90
_cell_angle_gamma            120.010002136348
_symmetry_space_group_H-M        'P1'
_symmetry_Int_Tables_number      '1'
_symmetry_cell_setting           'triclinic'
loop_
_symmetry_equiv_pos_as_xyz
x,y,z

loop_
_atom_site_label
_atom_site_type_symbol
_atom_site_occupancy
_atom_site_fract_x
_atom_site_fract_y
_atom_site_fract_z
_atom_site_U_iso_or_equiv
C1  C  1.0000  0.99748  0.19942  0.14133  0.0000
C2  C  1.0000  0.06429  0.13229  0.14052  0.0000
C3  C  1.0000  0.19572  0.19509  0.14104  0.0000
C4  C  1.0000  0.26391  0.12903  0.14129  0.0000
C5  C  1.0000  0.39580  0.19480  0.14241  0.0000
C6  C  1.0000  0.46503  0.13089  0.14303  0.0000
C7  C  1.0000  0.59756  0.20305  0.14368  0.0000
C8  C  1.0000  0.66574  0.13658  0.14348  0.0000
C9  C  1.0000  0.79816  0.20380  0.14302  0.0000
C10  C  1.0000  0.86594  0.13695  0.14191  0.0000
C11  C  1.0000  0.99446  0.39962  0.14350  0.0000
C12  C  1.0000  0.06026  0.33062  0.14248  0.0000
C13  C  1.0000  0.19192  0.39414  0.14296  0.0000
C14  C  1.0000  0.25950  0.32564  0.14244  0.0000
C15  C  1.0000  0.45841  0.32698  0.14343  0.0000
C16  C  1.0000  0.65777  0.33777  0.14415  0.0000
C17  C  1.0000  0.79269  0.40577  0.14427  0.0000
C18  C  1.0000  0.86089  0.33735  0.14361  0.0000
C19  C  1.0000  -0.00046  0.60153  0.14410  0.0000
C20  C  1.0000  0.06393  0.53246  0.14411  0.0000
C21  C  1.0000  0.19868  0.59303  0.14425  0.0000
C22  C  1.0000  0.86439  0.54093  0.14432  0.0000
C23  C  1.0000  0.00565  0.80257  0.14238  0.0000
C24  C  1.0000  0.07154  0.73414  0.14334  0.0000
C25  C  1.0000  0.20553  0.79653  0.14335  0.0000
C26  C  1.0000  0.27376  0.72819  0.14423  0.0000
C27  C  1.0000  0.40962  0.79712  0.14440  0.0000
C28  C  1.0000  0.61366  0.80770  0.14420  0.0000
C29  C  1.0000  0.80699  0.80704  0.14294  0.0000
C30  C  1.0000  0.87378  0.73907  0.14317  0.0000
C31  C  1.0000  0.00262  0.00100  0.14060  0.0000
C32  C  1.0000  0.06948  0.93422  0.14107  0.0000
C33  C  1.0000  0.20141  0.99717  0.14131  0.0000
C34  C  1.0000  0.26896  0.93003  0.14250  0.0000
C35  C  1.0000  0.40156  0.99711  0.14308  0.0000
C36  C  1.0000  0.47008  0.93128  0.14384  0.0000
C37  C  1.0000  0.60286  0.00264  0.14363  0.0000
C38  C  1.0000  0.67349  0.93943  0.14331  0.0000
C39  C  1.0000  0.80450  0.00539  0.14206  0.0000
C40  C  1.0000  0.87113  0.93794  0.14159  0.0000
N1  N  1.0000  0.58587  0.39778  0.14437  0.0000
N2  N  1.0000  0.80624  0.61085  0.14429  0.0000
N3  N  1.0000  0.67804  0.74185  0.14425  0.0000
N4  N  1.0000  0.38897  0.38602  0.14367  0.0000
N5  N  1.0000  0.25388  0.52180  0.14405  0.0000
N6  N  1.0000  0.48588  0.74251  0.14501  0.0000
Au1  Au  1.0000  0.44124  0.56308  0.14500  0.0000
Ni1  Ni  1.0000  0.63822  0.57095  0.14497  0.0000
