data_CNAuOs
_audit_creation_method           'pos2cif.pl'
_cell_length_a               12.3170003891
_cell_length_b               12.3170003891315
_cell_length_c               20
_cell_angle_alpha            90
_cell_angle_beta             90
_cell_angle_gamma            120.010002136348
_symmetry_space_group_H-M        'P1'
_symmetry_Int_Tables_number      '1'
_symmetry_cell_setting           'triclinic'
loop_
_symmetry_equiv_pos_as_xyz
x,y,z

loop_
_atom_site_label
_atom_site_type_symbol
_atom_site_occupancy
_atom_site_fract_x
_atom_site_fract_y
_atom_site_fract_z
_atom_site_U_iso_or_equiv
C1  C  1.0000  0.99757  0.19980  0.13525  0.0000
C2  C  1.0000  0.06435  0.13265  0.13260  0.0000
C3  C  1.0000  0.19548  0.19491  0.12529  0.0000
C4  C  1.0000  0.26314  0.12777  0.12775  0.0000
C5  C  1.0000  0.39494  0.19272  0.12948  0.0000
C6  C  1.0000  0.46443  0.12933  0.13689  0.0000
C7  C  1.0000  0.59728  0.20134  0.14169  0.0000
C8  C  1.0000  0.66585  0.13589  0.14603  0.0000
C9  C  1.0000  0.79832  0.20415  0.14460  0.0000
C10  C  1.0000  0.86671  0.13776  0.14430  0.0000
C11  C  1.0000  0.99435  0.40010  0.13671  0.0000
C12  C  1.0000  0.05998  0.33089  0.13042  0.0000
C13  C  1.0000  0.19115  0.39503  0.12254  0.0000
C14  C  1.0000  0.25981  0.32581  0.12160  0.0000
C15  C  1.0000  0.45650  0.32445  0.13191  0.0000
C16  C  1.0000  0.65706  0.33423  0.14487  0.0000
C17  C  1.0000  0.79259  0.40579  0.14787  0.0000
C18  C  1.0000  0.86084  0.33769  0.14280  0.0000
C19  C  1.0000  -0.00131  0.60126  0.14587  0.0000
C20  C  1.0000  0.06331  0.53243  0.13818  0.0000
C21  C  1.0000  0.19784  0.59306  0.13304  0.0000
C22  C  1.0000  0.86502  0.54057  0.15257  0.0000
C23  C  1.0000  0.00643  0.80351  0.14860  0.0000
C24  C  1.0000  0.07163  0.73409  0.14505  0.0000
C25  C  1.0000  0.20532  0.79580  0.14102  0.0000
C26  C  1.0000  0.27393  0.72746  0.14012  0.0000
C27  C  1.0000  0.41005  0.79670  0.14729  0.0000
C28  C  1.0000  0.61418  0.80976  0.16328  0.0000
C29  C  1.0000  0.81079  0.81163  0.16369  0.0000
C30  C  1.0000  0.87675  0.74250  0.16003  0.0000
C31  C  1.0000  0.00335  0.00215  0.14156  0.0000
C32  C  1.0000  0.06959  0.93453  0.14074  0.0000
C33  C  1.0000  0.20094  0.99627  0.13432  0.0000
C34  C  1.0000  0.26879  0.92934  0.13808  0.0000
C35  C  1.0000  0.40144  0.99623  0.13984  0.0000
C36  C  1.0000  0.47008  0.93072  0.14697  0.0000
C37  C  1.0000  0.60292  0.00250  0.15039  0.0000
C38  C  1.0000  0.67429  0.94083  0.15720  0.0000
C39  C  1.0000  0.80580  0.00730  0.15283  0.0000
C40  C  1.0000  0.87345  0.94078  0.15312  0.0000
N1  N  1.0000  0.58231  0.39168  0.14699  0.0000
N2  N  1.0000  0.80807  0.61308  0.16478  0.0000
N3  N  1.0000  0.68220  0.74729  0.17304  0.0000
N4  N  1.0000  0.38955  0.38602  0.12433  0.0000
N5  N  1.0000  0.25231  0.52262  0.12138  0.0000
N6  N  1.0000  0.48677  0.74270  0.15498  0.0000
Au1  Au  1.0000  0.43959  0.56456  0.13543  0.0000
Os1  Os  1.0000  0.63132  0.56344  0.17462  0.0000
