data_CNAuPd
_audit_creation_method           'pos2cif.pl'
_cell_length_a               12.3170003891
_cell_length_b               12.3170003891315
_cell_length_c               20
_cell_angle_alpha            90
_cell_angle_beta             90
_cell_angle_gamma            120.010002136348
_symmetry_space_group_H-M        'P1'
_symmetry_Int_Tables_number      '1'
_symmetry_cell_setting           'triclinic'
loop_
_symmetry_equiv_pos_as_xyz
x,y,z

loop_
_atom_site_label
_atom_site_type_symbol
_atom_site_occupancy
_atom_site_fract_x
_atom_site_fract_y
_atom_site_fract_z
_atom_site_U_iso_or_equiv
C1  C  1.0000  0.99726  0.19931  0.14128  0.0000
C2  C  1.0000  0.06446  0.13267  0.14044  0.0000
C3  C  1.0000  0.19558  0.19499  0.14097  0.0000
C4  C  1.0000  0.26324  0.12836  0.14120  0.0000
C5  C  1.0000  0.39454  0.19315  0.14237  0.0000
C6  C  1.0000  0.46465  0.13017  0.14300  0.0000
C7  C  1.0000  0.59724  0.20153  0.14365  0.0000
C8  C  1.0000  0.66576  0.13622  0.14345  0.0000
C9  C  1.0000  0.79815  0.20374  0.14301  0.0000
C10  C  1.0000  0.86600  0.13722  0.14188  0.0000
C11  C  1.0000  0.99430  0.39939  0.14351  0.0000
C12  C  1.0000  0.05958  0.33018  0.14245  0.0000
C13  C  1.0000  0.19081  0.39348  0.14294  0.0000
C14  C  1.0000  0.25894  0.32527  0.14243  0.0000
C15  C  1.0000  0.45651  0.32451  0.14348  0.0000
C16  C  1.0000  0.65750  0.33539  0.14419  0.0000
C17  C  1.0000  0.79290  0.40534  0.14429  0.0000
C18  C  1.0000  0.86085  0.33714  0.14362  0.0000
C19  C  1.0000  0.00098  0.60165  0.14408  0.0000
C20  C  1.0000  0.06412  0.53224  0.14410  0.0000
C21  C  1.0000  0.19812  0.59282  0.14425  0.0000
C22  C  1.0000  0.86668  0.54093  0.14432  0.0000
C23  C  1.0000  0.00713  0.80362  0.14235  0.0000
C24  C  1.0000  0.07222  0.73437  0.14332  0.0000
C25  C  1.0000  0.20589  0.79659  0.14335  0.0000
C26  C  1.0000  0.27378  0.72815  0.14425  0.0000
C27  C  1.0000  0.40950  0.79738  0.14442  0.0000
C28  C  1.0000  0.61377  0.80986  0.14423  0.0000
C29  C  1.0000  0.80860  0.80917  0.14297  0.0000
C30  C  1.0000  0.87588  0.74057  0.14319  0.0000
C31  C  1.0000  0.00339  0.00181  0.14050  0.0000
C32  C  1.0000  0.07011  0.93480  0.14099  0.0000
C33  C  1.0000  0.20149  0.99699  0.14123  0.0000
C34  C  1.0000  0.26897  0.92988  0.14247  0.0000
C35  C  1.0000  0.40134  0.99675  0.14306  0.0000
C36  C  1.0000  0.46991  0.93134  0.14383  0.0000
C37  C  1.0000  0.60274  0.00297  0.14358  0.0000
C38  C  1.0000  0.67369  0.94090  0.14325  0.0000
C39  C  1.0000  0.80470  0.00598  0.14201  0.0000
C40  C  1.0000  0.87232  0.93948  0.14153  0.0000
N1  N  1.0000  0.58349  0.39124  0.14454  0.0000
N2  N  1.0000  0.81232  0.61279  0.14431  0.0000
N3  N  1.0000  0.68018  0.74786  0.14439  0.0000
N4  N  1.0000  0.38829  0.38560  0.14375  0.0000
N5  N  1.0000  0.25177  0.52091  0.14405  0.0000
N6  N  1.0000  0.48579  0.74324  0.14506  0.0000
Au1  Au  1.0000  0.43595  0.56285  0.14517  0.0000
Pd1  Pd  1.0000  0.63563  0.57036  0.14522  0.0000
