data_CNAuPt
_audit_creation_method           'pos2cif.pl'
_cell_length_a               12.3170003891
_cell_length_b               12.3170003891315
_cell_length_c               20
_cell_angle_alpha            90
_cell_angle_beta             90
_cell_angle_gamma            120.010002136348
_symmetry_space_group_H-M        'P1'
_symmetry_Int_Tables_number      '1'
_symmetry_cell_setting           'triclinic'
loop_
_symmetry_equiv_pos_as_xyz
x,y,z

loop_
_atom_site_label
_atom_site_type_symbol
_atom_site_occupancy
_atom_site_fract_x
_atom_site_fract_y
_atom_site_fract_z
_atom_site_U_iso_or_equiv
C1  C  1.0000  0.99703  0.19928  0.14126  0.0000
C2  C  1.0000  0.06441  0.13280  0.14039  0.0000
C3  C  1.0000  0.19533  0.19479  0.14094  0.0000
C4  C  1.0000  0.26321  0.12837  0.14118  0.0000
C5  C  1.0000  0.39445  0.19300  0.14237  0.0000
C6  C  1.0000  0.46469  0.13004  0.14301  0.0000
C7  C  1.0000  0.59716  0.20145  0.14367  0.0000
C8  C  1.0000  0.66567  0.13603  0.14347  0.0000
C9  C  1.0000  0.79801  0.20377  0.14302  0.0000
C10  C  1.0000  0.86585  0.13725  0.14188  0.0000
C11  C  1.0000  0.99396  0.39942  0.14353  0.0000
C12  C  1.0000  0.05911  0.33008  0.14246  0.0000
C13  C  1.0000  0.19018  0.39328  0.14295  0.0000
C14  C  1.0000  0.25827  0.32493  0.14243  0.0000
C15  C  1.0000  0.45561  0.32396  0.14350  0.0000
C16  C  1.0000  0.65745  0.33533  0.14419  0.0000
C17  C  1.0000  0.79269  0.40561  0.14430  0.0000
C18  C  1.0000  0.86060  0.33719  0.14363  0.0000
C19  C  1.0000  0.00088  0.60182  0.14411  0.0000
C20  C  1.0000  0.06380  0.53227  0.14413  0.0000
C21  C  1.0000  0.19777  0.59273  0.14428  0.0000
C22  C  1.0000  0.86667  0.54110  0.14434  0.0000
C23  C  1.0000  0.00793  0.80411  0.14235  0.0000
C24  C  1.0000  0.07262  0.73455  0.14334  0.0000
C25  C  1.0000  0.20620  0.79664  0.14336  0.0000
C26  C  1.0000  0.27393  0.72803  0.14427  0.0000
C27  C  1.0000  0.40969  0.79712  0.14443  0.0000
C28  C  1.0000  0.61391  0.80932  0.14424  0.0000
C29  C  1.0000  0.81006  0.81030  0.14298  0.0000
C30  C  1.0000  0.87714  0.74174  0.14319  0.0000
C31  C  1.0000  0.00376  0.00214  0.14045  0.0000
C32  C  1.0000  0.07056  0.93520  0.14095  0.0000
C33  C  1.0000  0.20177  0.99710  0.14120  0.0000
C34  C  1.0000  0.26923  0.92994  0.14247  0.0000
C35  C  1.0000  0.40152  0.99667  0.14307  0.0000
C36  C  1.0000  0.47003  0.93112  0.14384  0.0000
C37  C  1.0000  0.60280  0.00267  0.14361  0.0000
C38  C  1.0000  0.67378  0.94044  0.14328  0.0000
C39  C  1.0000  0.80477  0.00605  0.14201  0.0000
C40  C  1.0000  0.87289  0.94016  0.14152  0.0000
N1  N  1.0000  0.58306  0.39130  0.14454  0.0000
N2  N  1.0000  0.81275  0.61374  0.14432  0.0000
N3  N  1.0000  0.68166  0.74799  0.14438  0.0000
N4  N  1.0000  0.38733  0.38487  0.14375  0.0000
N5  N  1.0000  0.25117  0.52072  0.14408  0.0000
N6  N  1.0000  0.48604  0.74284  0.14504  0.0000
Au1  Au  1.0000  0.43422  0.56181  0.14511  0.0000
Pt1  Pt  1.0000  0.63543  0.57008  0.14513  0.0000
