data_CNAuRe
_audit_creation_method           'pos2cif.pl'
_cell_length_a               12.3170003891
_cell_length_b               12.3170003891315
_cell_length_c               20
_cell_angle_alpha            90
_cell_angle_beta             90
_cell_angle_gamma            120.010002136348
_symmetry_space_group_H-M        'P1'
_symmetry_Int_Tables_number      '1'
_symmetry_cell_setting           'triclinic'
loop_
_symmetry_equiv_pos_as_xyz
x,y,z

loop_
_atom_site_label
_atom_site_type_symbol
_atom_site_occupancy
_atom_site_fract_x
_atom_site_fract_y
_atom_site_fract_z
_atom_site_U_iso_or_equiv
C1  C  1.0000  0.99737  0.19942  0.12857  0.0000
C2  C  1.0000  0.06426  0.13242  0.12527  0.0000
C3  C  1.0000  0.19616  0.19546  0.12561  0.0000
C4  C  1.0000  0.26368  0.12846  0.12863  0.0000
C5  C  1.0000  0.39516  0.19367  0.13544  0.0000
C6  C  1.0000  0.46452  0.12979  0.14034  0.0000
C7  C  1.0000  0.59738  0.20116  0.14459  0.0000
C8  C  1.0000  0.66605  0.13575  0.14380  0.0000
C9  C  1.0000  0.79833  0.20362  0.14027  0.0000
C10  C  1.0000  0.86608  0.13688  0.13558  0.0000
C11  C  1.0000  0.99462  0.39966  0.13623  0.0000
C12  C  1.0000  0.06030  0.33075  0.12956  0.0000
C13  C  1.0000  0.19202  0.39483  0.12886  0.0000
C14  C  1.0000  0.25984  0.32611  0.13019  0.0000
C15  C  1.0000  0.45578  0.32411  0.14391  0.0000
C16  C  1.0000  0.65776  0.33349  0.15063  0.0000
C17  C  1.0000  0.79318  0.40507  0.14942  0.0000
C18  C  1.0000  0.86134  0.33706  0.14146  0.0000
C19  C  1.0000  0.99930  0.60107  0.14424  0.0000
C20  C  1.0000  0.06381  0.53225  0.13916  0.0000
C21  C  1.0000  0.19834  0.59317  0.13817  0.0000
C22  C  1.0000  0.86591  0.54007  0.15141  0.0000
C23  C  1.0000  0.00564  0.80301  0.13991  0.0000
C24  C  1.0000  0.07143  0.73408  0.14128  0.0000
C25  C  1.0000  0.20510  0.79616  0.14023  0.0000
C26  C  1.0000  0.27367  0.72786  0.14392  0.0000
C27  C  1.0000  0.40941  0.79762  0.15109  0.0000
C28  C  1.0000  0.61471  0.81154  0.16115  0.0000
C29  C  1.0000  0.81016  0.81100  0.15336  0.0000
C30  C  1.0000  0.87553  0.74189  0.15039  0.0000
C31  C  1.0000  0.00244  0.00105  0.12989  0.0000
C32  C  1.0000  0.06904  0.93385  0.13150  0.0000
C33  C  1.0000  0.20118  0.99657  0.13048  0.0000
C34  C  1.0000  0.26866  0.92968  0.13685  0.0000
C35  C  1.0000  0.40117  0.99670  0.14069  0.0000
C36  C  1.0000  0.46985  0.93124  0.14726  0.0000
C37  C  1.0000  0.60280  0.00266  0.14718  0.0000
C38  C  1.0000  0.67418  0.94079  0.15004  0.0000
C39  C  1.0000  0.80501  0.00616  0.14167  0.0000
C40  C  1.0000  0.87220  0.93931  0.14019  0.0000
N1  N  1.0000  0.58241  0.38947  0.15842  0.0000
N2  N  1.0000  0.80972  0.61304  0.16009  0.0000
N3  N  1.0000  0.68329  0.75033  0.16941  0.0000
N4  N  1.0000  0.38844  0.38592  0.14148  0.0000
N5  N  1.0000  0.25369  0.52253  0.13200  0.0000
N6  N  1.0000  0.48629  0.74452  0.16179  0.0000
Au1  Au  1.0000  0.43591  0.56358  0.15541  0.0000
Re1  Re  1.0000  0.63393  0.56629  0.18495  0.0000
