data_CNAuRh
_audit_creation_method           'pos2cif.pl'
_cell_length_a               12.3170003891
_cell_length_b               12.3170003891315
_cell_length_c               20
_cell_angle_alpha            90
_cell_angle_beta             90
_cell_angle_gamma            120.010002136348
_symmetry_space_group_H-M        'P1'
_symmetry_Int_Tables_number      '1'
_symmetry_cell_setting           'triclinic'
loop_
_symmetry_equiv_pos_as_xyz
x,y,z

loop_
_atom_site_label
_atom_site_type_symbol
_atom_site_occupancy
_atom_site_fract_x
_atom_site_fract_y
_atom_site_fract_z
_atom_site_U_iso_or_equiv
C1  C  1.0000  0.99724  0.19971  0.14128  0.0000
C2  C  1.0000  0.06470  0.13310  0.14046  0.0000
C3  C  1.0000  0.19596  0.19527  0.14098  0.0000
C4  C  1.0000  0.26351  0.12832  0.14121  0.0000
C5  C  1.0000  0.39474  0.19279  0.14236  0.0000
C6  C  1.0000  0.46455  0.12957  0.14299  0.0000
C7  C  1.0000  0.59713  0.20123  0.14365  0.0000
C8  C  1.0000  0.66563  0.13599  0.14346  0.0000
C9  C  1.0000  0.79794  0.20397  0.14300  0.0000
C10  C  1.0000  0.86603  0.13770  0.14187  0.0000
C11  C  1.0000  0.99395  0.39991  0.14349  0.0000
C12  C  1.0000  0.05917  0.33043  0.14244  0.0000
C13  C  1.0000  0.19048  0.39446  0.14294  0.0000
C14  C  1.0000  0.25980  0.32558  0.14245  0.0000
C15  C  1.0000  0.45681  0.32425  0.14347  0.0000
C16  C  1.0000  0.65700  0.33475  0.14417  0.0000
C17  C  1.0000  0.79257  0.40561  0.14427  0.0000
C18  C  1.0000  0.86015  0.33749  0.14360  0.0000
C19  C  1.0000  -0.00012  0.60185  0.14412  0.0000
C20  C  1.0000  0.06300  0.53225  0.14412  0.0000
C21  C  1.0000  0.19691  0.59263  0.14425  0.0000
C22  C  1.0000  0.86591  0.54121  0.14434  0.0000
C23  C  1.0000  0.00731  0.80362  0.14234  0.0000
C24  C  1.0000  0.07220  0.73422  0.14332  0.0000
C25  C  1.0000  0.20618  0.79629  0.14335  0.0000
C26  C  1.0000  0.27379  0.72789  0.14426  0.0000
C27  C  1.0000  0.41003  0.79686  0.14442  0.0000
C28  C  1.0000  0.61446  0.80960  0.14423  0.0000
C29  C  1.0000  0.80905  0.81019  0.14296  0.0000
C30  C  1.0000  0.87632  0.74092  0.14318  0.0000
C31  C  1.0000  0.00391  0.00231  0.14051  0.0000
C32  C  1.0000  0.07040  0.93505  0.14099  0.0000
C33  C  1.0000  0.20167  0.99684  0.14123  0.0000
C34  C  1.0000  0.26909  0.92956  0.14247  0.0000
C35  C  1.0000  0.40145  0.99621  0.14306  0.0000
C36  C  1.0000  0.47003  0.93087  0.14382  0.0000
C37  C  1.0000  0.60289  0.00270  0.14358  0.0000
C38  C  1.0000  0.67411  0.94090  0.14323  0.0000
C39  C  1.0000  0.80489  0.00650  0.14199  0.0000
C40  C  1.0000  0.87260  0.93997  0.14151  0.0000
N1  N  1.0000  0.58411  0.39197  0.14452  0.0000
N2  N  1.0000  0.81039  0.61326  0.14431  0.0000
N3  N  1.0000  0.68112  0.74715  0.14439  0.0000
N4  N  1.0000  0.38831  0.38516  0.14377  0.0000
N5  N  1.0000  0.25015  0.52078  0.14401  0.0000
N6  N  1.0000  0.48652  0.74310  0.14508  0.0000
Au1  Au  1.0000  0.43654  0.56219  0.14525  0.0000
Rh1  Rh  1.0000  0.63648  0.56899  0.14522  0.0000
