data_CNAuRu
_audit_creation_method           'pos2cif.pl'
_cell_length_a               12.3170003891
_cell_length_b               12.3170003891315
_cell_length_c               20
_cell_angle_alpha            90
_cell_angle_beta             90
_cell_angle_gamma            120.010002136348
_symmetry_space_group_H-M        'P1'
_symmetry_Int_Tables_number      '1'
_symmetry_cell_setting           'triclinic'
loop_
_symmetry_equiv_pos_as_xyz
x,y,z

loop_
_atom_site_label
_atom_site_type_symbol
_atom_site_occupancy
_atom_site_fract_x
_atom_site_fract_y
_atom_site_fract_z
_atom_site_U_iso_or_equiv
C1  C  1.0000  0.99766  0.19985  0.15045  0.0000
C2  C  1.0000  0.06449  0.13273  0.15213  0.0000
C3  C  1.0000  0.19583  0.19535  0.15941  0.0000
C4  C  1.0000  0.26319  0.12796  0.15687  0.0000
C5  C  1.0000  0.39492  0.19284  0.15623  0.0000
C6  C  1.0000  0.46447  0.12944  0.14938  0.0000
C7  C  1.0000  0.59740  0.20130  0.14582  0.0000
C8  C  1.0000  0.66591  0.13596  0.14108  0.0000
C9  C  1.0000  0.79838  0.20407  0.14239  0.0000
C10  C  1.0000  0.86672  0.13770  0.14205  0.0000
C11  C  1.0000  0.99452  0.40010  0.14966  0.0000
C12  C  1.0000  0.06023  0.33098  0.15547  0.0000
C13  C  1.0000  0.19158  0.39529  0.16304  0.0000
C14  C  1.0000  0.26040  0.32620  0.16429  0.0000
C15  C  1.0000  0.45736  0.32495  0.15558  0.0000
C16  C  1.0000  0.65725  0.33451  0.14348  0.0000
C17  C  1.0000  0.79265  0.40565  0.13986  0.0000
C18  C  1.0000  0.86091  0.33760  0.14424  0.0000
C19  C  1.0000  -0.00126  0.60130  0.14062  0.0000
C20  C  1.0000  0.06332  0.53251  0.14808  0.0000
C21  C  1.0000  0.19785  0.59309  0.15283  0.0000
C22  C  1.0000  0.86477  0.54068  0.13475  0.0000
C23  C  1.0000  0.00599  0.80328  0.13666  0.0000
C24  C  1.0000  0.07136  0.73408  0.14052  0.0000
C25  C  1.0000  0.20525  0.79593  0.14430  0.0000
C26  C  1.0000  0.27385  0.72766  0.14580  0.0000
C27  C  1.0000  0.41002  0.79681  0.13930  0.0000
C28  C  1.0000  0.61405  0.80987  0.12355  0.0000
C29  C  1.0000  0.80916  0.81044  0.12262  0.0000
C30  C  1.0000  0.87548  0.74120  0.12635  0.0000
C31  C  1.0000  0.00318  0.00214  0.14319  0.0000
C32  C  1.0000  0.06943  0.93449  0.14369  0.0000
C33  C  1.0000  0.20082  0.99644  0.15000  0.0000
C34  C  1.0000  0.26865  0.92946  0.14677  0.0000
C35  C  1.0000  0.40133  0.99631  0.14582  0.0000
C36  C  1.0000  0.47003  0.93086  0.13935  0.0000
C37  C  1.0000  0.60291  0.00270  0.13625  0.0000
C38  C  1.0000  0.67414  0.94105  0.12918  0.0000
C39  C  1.0000  0.80562  0.00713  0.13337  0.0000
C40  C  1.0000  0.87287  0.94023  0.13260  0.0000
N1  N  1.0000  0.58333  0.39189  0.14247  0.0000
N2  N  1.0000  0.80789  0.61233  0.12306  0.0000
N3  N  1.0000  0.68085  0.74701  0.11404  0.0000
N4  N  1.0000  0.39054  0.38668  0.16379  0.0000
N5  N  1.0000  0.25236  0.52271  0.16391  0.0000
N6  N  1.0000  0.48677  0.74279  0.13275  0.0000
Au1  Au  1.0000  0.44202  0.56561  0.15334  0.0000
Ru1  Ru  1.0000  0.63056  0.56199  0.11157  0.0000
