data_CNAuSc
_audit_creation_method           'pos2cif.pl'
_cell_length_a               12.3170003891
_cell_length_b               12.3170003891315
_cell_length_c               20
_cell_angle_alpha            90
_cell_angle_beta             90
_cell_angle_gamma            120.010002136348
_symmetry_space_group_H-M        'P1'
_symmetry_Int_Tables_number      '1'
_symmetry_cell_setting           'triclinic'
loop_
_symmetry_equiv_pos_as_xyz
x,y,z

loop_
_atom_site_label
_atom_site_type_symbol
_atom_site_occupancy
_atom_site_fract_x
_atom_site_fract_y
_atom_site_fract_z
_atom_site_U_iso_or_equiv
C1  C  1.0000  -0.00180  0.19959  0.13196  0.0000
C2  C  1.0000  0.06511  0.13293  0.13100  0.0000
C3  C  1.0000  0.19685  0.19646  0.13516  0.0000
C4  C  1.0000  0.26382  0.12909  0.13747  0.0000
C5  C  1.0000  0.39550  0.19457  0.14313  0.0000
C6  C  1.0000  0.46438  0.13027  0.14409  0.0000
C7  C  1.0000  0.59758  0.20170  0.14532  0.0000
C8  C  1.0000  0.66594  0.13607  0.14136  0.0000
C9  C  1.0000  0.79823  0.20292  0.13817  0.0000
C10  C  1.0000  0.86623  0.13638  0.13411  0.0000
C11  C  1.0000  0.99517  0.39920  0.13701  0.0000
C12  C  1.0000  0.06168  0.33082  0.13422  0.0000
C13  C  1.0000  0.19338  0.39546  0.13757  0.0000
C14  C  1.0000  0.26098  0.32681  0.14117  0.0000
C15  C  1.0000  0.45852  0.32588  0.15167  0.0000
C16  C  1.0000  0.65815  0.33426  0.15010  0.0000
C17  C  1.0000  0.79352  0.40406  0.14480  0.0000
C18  C  1.0000  0.86178  0.33606  0.13959  0.0000
C19  C  1.0000  -0.00121  0.60025  0.13972  0.0000
C20  C  1.0000  0.06381  0.53182  0.13926  0.0000
C21  C  1.0000  0.19827  0.59305  0.14149  0.0000
C22  C  1.0000  0.86503  0.53832  0.14176  0.0000
C23  C  1.0000  0.00376  0.80193  0.13712  0.0000
C24  C  1.0000  0.07017  0.73372  0.13894  0.0000
C25  C  1.0000  0.20369  0.79619  0.14112  0.0000
C26  C  1.0000  0.27238  0.72810  0.14484  0.0000
C27  C  1.0000  0.40818  0.79796  0.14916  0.0000
C28  C  1.0000  0.61205  0.81084  0.14884  0.0000
C29  C  1.0000  0.80553  0.80692  0.14143  0.0000
C30  C  1.0000  0.87094  0.73760  0.13950  0.0000
C31  C  1.0000  0.00222  0.00110  0.13187  0.0000
C32  C  1.0000  0.06828  0.93346  0.13430  0.0000
C33  C  1.0000  0.20072  0.99713  0.13642  0.0000
C34  C  1.0000  0.26786  0.92998  0.14032  0.0000
C35  C  1.0000  0.40038  0.99713  0.14282  0.0000
C36  C  1.0000  0.46914  0.93145  0.14514  0.0000
C37  C  1.0000  0.60193  0.00297  0.14247  0.0000
C38  C  1.0000  0.67246  0.94043  0.14089  0.0000
C39  C  1.0000  0.80417  0.00530  0.13576  0.0000
C40  C  1.0000  0.87098  0.93815  0.13528  0.0000
N1  N  1.0000  0.58593  0.39276  0.16008  0.0000
N2  N  1.0000  0.80437  0.60724  0.14228  0.0000
N3  N  1.0000  0.67680  0.74622  0.15152  0.0000
N4  N  1.0000  0.39016  0.38643  0.15304  0.0000
N5  N  1.0000  0.25458  0.52302  0.14076  0.0000
N6  N  1.0000  0.48525  0.74458  0.15631  0.0000
Au1  Au  1.0000  0.44121  0.56359  0.16504  0.0000
Sc1  Sc  1.0000  0.65295  0.58096  0.19655  0.0000
