data_CNAuTa
_audit_creation_method           'pos2cif.pl'
_cell_length_a               12.3170003891
_cell_length_b               12.3170003891315
_cell_length_c               20
_cell_angle_alpha            90
_cell_angle_beta             90
_cell_angle_gamma            120.010002136348
_symmetry_space_group_H-M        'P1'
_symmetry_Int_Tables_number      '1'
_symmetry_cell_setting           'triclinic'
loop_
_symmetry_equiv_pos_as_xyz
x,y,z

loop_
_atom_site_label
_atom_site_type_symbol
_atom_site_occupancy
_atom_site_fract_x
_atom_site_fract_y
_atom_site_fract_z
_atom_site_U_iso_or_equiv
C1  C  1.0000  -0.00237  0.19932  0.12971  0.0000
C2  C  1.0000  0.06413  0.13219  0.12737  0.0000
C3  C  1.0000  0.19609  0.19556  0.12481  0.0000
C4  C  1.0000  0.26364  0.12857  0.12827  0.0000
C5  C  1.0000  0.39564  0.19431  0.13282  0.0000
C6  C  1.0000  0.46457  0.13025  0.13940  0.0000
C7  C  1.0000  0.59765  0.20215  0.14347  0.0000
C8  C  1.0000  0.66622  0.13614  0.14441  0.0000
C9  C  1.0000  0.79835  0.20336  0.14071  0.0000
C10  C  1.0000  0.86635  0.13651  0.13802  0.0000
C11  C  1.0000  0.99489  0.39964  0.13452  0.0000
C12  C  1.0000  0.06086  0.33078  0.12807  0.0000
C13  C  1.0000  0.19262  0.39532  0.12538  0.0000
C14  C  1.0000  0.26022  0.32645  0.12550  0.0000
C15  C  1.0000  0.45742  0.32593  0.13821  0.0000
C16  C  1.0000  0.65805  0.33471  0.14744  0.0000
C17  C  1.0000  0.79357  0.40513  0.14663  0.0000
C18  C  1.0000  0.86164  0.33679  0.13990  0.0000
C19  C  1.0000  -0.00142  0.60058  0.14395  0.0000
C20  C  1.0000  0.06379  0.53208  0.13761  0.0000
C21  C  1.0000  0.19867  0.59336  0.13621  0.0000
C22  C  1.0000  0.86530  0.53904  0.14995  0.0000
C23  C  1.0000  0.00448  0.80251  0.14292  0.0000
C24  C  1.0000  0.07084  0.73397  0.14294  0.0000
C25  C  1.0000  0.20426  0.79609  0.14149  0.0000
C26  C  1.0000  0.27322  0.72770  0.14332  0.0000
C27  C  1.0000  0.40895  0.79755  0.15048  0.0000
C28  C  1.0000  0.61342  0.81125  0.16224  0.0000
C29  C  1.0000  0.80908  0.80949  0.15615  0.0000
C30  C  1.0000  0.87367  0.74057  0.15235  0.0000
C31  C  1.0000  0.00213  0.00090  0.13415  0.0000
C32  C  1.0000  0.06849  0.93358  0.13525  0.0000
C33  C  1.0000  0.20080  0.99675  0.13259  0.0000
C34  C  1.0000  0.26841  0.92996  0.13831  0.0000
C35  C  1.0000  0.40098  0.99713  0.14123  0.0000
C36  C  1.0000  0.46971  0.93128  0.14796  0.0000
C37  C  1.0000  0.60258  0.00292  0.14880  0.0000
C38  C  1.0000  0.67384  0.94084  0.15322  0.0000
C39  C  1.0000  0.80533  0.00624  0.14590  0.0000
C40  C  1.0000  0.87208  0.93900  0.14482  0.0000
N1  N  1.0000  0.58361  0.39314  0.15308  0.0000
N2  N  1.0000  0.80635  0.61026  0.16120  0.0000
N3  N  1.0000  0.68123  0.74826  0.17171  0.0000
N4  N  1.0000  0.39054  0.38724  0.13262  0.0000
N5  N  1.0000  0.25481  0.52333  0.12831  0.0000
N6  N  1.0000  0.48597  0.74372  0.15972  0.0000
Au1  Au  1.0000  0.44043  0.56321  0.14939  0.0000
Ta1  Ta  1.0000  0.63596  0.56613  0.19944  0.0000
