data_CNAuTc
_audit_creation_method           'pos2cif.pl'
_cell_length_a               12.3170003891
_cell_length_b               12.3170003891315
_cell_length_c               20
_cell_angle_alpha            90
_cell_angle_beta             90
_cell_angle_gamma            120.010002136348
_symmetry_space_group_H-M        'P1'
_symmetry_Int_Tables_number      '1'
_symmetry_cell_setting           'triclinic'
loop_
_symmetry_equiv_pos_as_xyz
x,y,z

loop_
_atom_site_label
_atom_site_type_symbol
_atom_site_occupancy
_atom_site_fract_x
_atom_site_fract_y
_atom_site_fract_z
_atom_site_U_iso_or_equiv
C1  C  1.0000  0.99756  0.19940  0.13037  0.0000
C2  C  1.0000  0.06424  0.13227  0.12793  0.0000
C3  C  1.0000  0.19613  0.19552  0.12479  0.0000
C4  C  1.0000  0.26338  0.12824  0.12814  0.0000
C5  C  1.0000  0.39527  0.19352  0.13221  0.0000
C6  C  1.0000  0.46453  0.12978  0.13843  0.0000
C7  C  1.0000  0.59749  0.20090  0.14224  0.0000
C8  C  1.0000  0.66614  0.13564  0.14396  0.0000
C9  C  1.0000  0.79850  0.20352  0.14105  0.0000
C10  C  1.0000  0.86649  0.13693  0.13859  0.0000
C11  C  1.0000  0.99481  0.39966  0.13531  0.0000
C12  C  1.0000  0.06046  0.33078  0.12843  0.0000
C13  C  1.0000  0.19224  0.39511  0.12468  0.0000
C14  C  1.0000  0.26047  0.32665  0.12507  0.0000
C15  C  1.0000  0.45719  0.32498  0.13731  0.0000
C16  C  1.0000  0.65792  0.33345  0.14678  0.0000
C17  C  1.0000  0.79329  0.40486  0.14786  0.0000
C18  C  1.0000  0.86155  0.33699  0.14088  0.0000
C19  C  1.0000  -0.00061  0.60101  0.14527  0.0000
C20  C  1.0000  0.06386  0.53235  0.13843  0.0000
C21  C  1.0000  0.19833  0.59328  0.13598  0.0000
C22  C  1.0000  0.86569  0.53995  0.15186  0.0000
C23  C  1.0000  0.00524  0.80293  0.14442  0.0000
C24  C  1.0000  0.07110  0.73401  0.14379  0.0000
C25  C  1.0000  0.20487  0.79623  0.14173  0.0000
C26  C  1.0000  0.27351  0.72790  0.14346  0.0000
C27  C  1.0000  0.40925  0.79761  0.15106  0.0000
C28  C  1.0000  0.61439  0.81162  0.16389  0.0000
C29  C  1.0000  0.80943  0.81051  0.15902  0.0000
C30  C  1.0000  0.87479  0.74110  0.15497  0.0000
C31  C  1.0000  0.00243  0.00116  0.13517  0.0000
C32  C  1.0000  0.06881  0.93384  0.13625  0.0000
C33  C  1.0000  0.20084  0.99656  0.13285  0.0000
C34  C  1.0000  0.26848  0.92974  0.13838  0.0000
C35  C  1.0000  0.40107  0.99663  0.14082  0.0000
C36  C  1.0000  0.46969  0.93129  0.14799  0.0000
C37  C  1.0000  0.60281  0.00277  0.14876  0.0000
C38  C  1.0000  0.67421  0.94131  0.15382  0.0000
C39  C  1.0000  0.80535  0.00648  0.14662  0.0000
C40  C  1.0000  0.87235  0.93939  0.14627  0.0000
N1  N  1.0000  0.58330  0.38975  0.15156  0.0000
N2  N  1.0000  0.80917  0.61174  0.16170  0.0000
N3  N  1.0000  0.68189  0.75017  0.17309  0.0000
N4  N  1.0000  0.39065  0.38757  0.13228  0.0000
N5  N  1.0000  0.25359  0.52311  0.12655  0.0000
N6  N  1.0000  0.48585  0.74420  0.16124  0.0000
Au1  Au  1.0000  0.43787  0.56492  0.14797  0.0000
Tc1  Tc  1.0000  0.63119  0.56382  0.18272  0.0000
