data_CNAuTi
_audit_creation_method           'pos2cif.pl'
_cell_length_a               12.3170003891
_cell_length_b               12.3170003891315
_cell_length_c               20
_cell_angle_alpha            90
_cell_angle_beta             90
_cell_angle_gamma            120.010002136348
_symmetry_space_group_H-M        'P1'
_symmetry_Int_Tables_number      '1'
_symmetry_cell_setting           'triclinic'
loop_
_symmetry_equiv_pos_as_xyz
x,y,z

loop_
_atom_site_label
_atom_site_type_symbol
_atom_site_occupancy
_atom_site_fract_x
_atom_site_fract_y
_atom_site_fract_z
_atom_site_U_iso_or_equiv
C1  C  1.0000  -0.00233  0.19875  0.14131  0.0000
C2  C  1.0000  0.06453  0.13213  0.14243  0.0000
C3  C  1.0000  0.19600  0.19567  0.14942  0.0000
C4  C  1.0000  0.26358  0.12886  0.14878  0.0000
C5  C  1.0000  0.39563  0.19491  0.15199  0.0000
C6  C  1.0000  0.46435  0.13060  0.14806  0.0000
C7  C  1.0000  0.59766  0.20266  0.14629  0.0000
C8  C  1.0000  0.66551  0.13651  0.13975  0.0000
C9  C  1.0000  0.79791  0.20257  0.13887  0.0000
C10  C  1.0000  0.86601  0.13593  0.13663  0.0000
C11  C  1.0000  0.99508  0.39866  0.14222  0.0000
C12  C  1.0000  0.06109  0.32995  0.14507  0.0000
C13  C  1.0000  0.19226  0.39454  0.15171  0.0000
C14  C  1.0000  0.26031  0.32597  0.15596  0.0000
C15  C  1.0000  0.45981  0.32737  0.15919  0.0000
C16  C  1.0000  0.65849  0.33578  0.14959  0.0000
C17  C  1.0000  0.79351  0.40377  0.14138  0.0000
C18  C  1.0000  0.86152  0.33559  0.14076  0.0000
C19  C  1.0000  -0.00098  0.59948  0.13628  0.0000
C20  C  1.0000  0.06372  0.53122  0.14197  0.0000
C21  C  1.0000  0.19784  0.59253  0.14652  0.0000
C22  C  1.0000  0.86572  0.53697  0.13336  0.0000
C23  C  1.0000  0.00370  0.80125  0.13514  0.0000
C24  C  1.0000  0.07006  0.73322  0.13687  0.0000
C25  C  1.0000  0.20351  0.79585  0.14139  0.0000
C26  C  1.0000  0.27217  0.72772  0.14443  0.0000
C27  C  1.0000  0.40796  0.79768  0.14333  0.0000
C28  C  1.0000  0.61028  0.81016  0.13240  0.0000
C29  C  1.0000  0.80445  0.80539  0.12808  0.0000
C30  C  1.0000  0.87050  0.73591  0.12846  0.0000
C31  C  1.0000  0.00162  0.00052  0.13763  0.0000
C32  C  1.0000  0.06778  0.93269  0.13914  0.0000
C33  C  1.0000  0.20018  0.99674  0.14385  0.0000
C34  C  1.0000  0.26758  0.92977  0.14352  0.0000
C35  C  1.0000  0.40039  0.99742  0.14443  0.0000
C36  C  1.0000  0.46891  0.93152  0.14095  0.0000
C37  C  1.0000  0.60154  0.00327  0.13680  0.0000
C38  C  1.0000  0.67173  0.94066  0.13069  0.0000
C39  C  1.0000  0.80390  0.00493  0.13176  0.0000
C40  C  1.0000  0.87068  0.93770  0.13238  0.0000
N1  N  1.0000  0.58821  0.39655  0.16106  0.0000
N2  N  1.0000  0.80517  0.60512  0.12556  0.0000
N3  N  1.0000  0.67420  0.74464  0.12920  0.0000
N4  N  1.0000  0.39045  0.38657  0.16385  0.0000
N5  N  1.0000  0.25314  0.52208  0.15284  0.0000
N6  N  1.0000  0.48474  0.74332  0.14345  0.0000
Au1  Au  1.0000  0.44399  0.56539  0.16234  0.0000
Ti1  Ti  1.0000  0.66297  0.59464  0.17484  0.0000
