data_CNAuV
_audit_creation_method           'pos2cif.pl'
_cell_length_a               12.3170003891
_cell_length_b               12.3170003891315
_cell_length_c               20
_cell_angle_alpha            90
_cell_angle_beta             90
_cell_angle_gamma            120.010002136348
_symmetry_space_group_H-M        'P1'
_symmetry_Int_Tables_number      '1'
_symmetry_cell_setting           'triclinic'
loop_
_symmetry_equiv_pos_as_xyz
x,y,z

loop_
_atom_site_label
_atom_site_type_symbol
_atom_site_occupancy
_atom_site_fract_x
_atom_site_fract_y
_atom_site_fract_z
_atom_site_U_iso_or_equiv
C1  C  1.0000  0.99826  0.19988  0.14968  0.0000
C2  C  1.0000  0.06480  0.13276  0.15121  0.0000
C3  C  1.0000  0.19622  0.19581  0.15796  0.0000
C4  C  1.0000  0.26322  0.12823  0.15563  0.0000
C5  C  1.0000  0.39523  0.19332  0.15514  0.0000
C6  C  1.0000  0.46455  0.12988  0.14872  0.0000
C7  C  1.0000  0.59770  0.20145  0.14562  0.0000
C8  C  1.0000  0.66615  0.13605  0.14114  0.0000
C9  C  1.0000  0.79866  0.20371  0.14239  0.0000
C10  C  1.0000  0.86702  0.13739  0.14168  0.0000
C11  C  1.0000  0.99511  0.39983  0.14963  0.0000
C12  C  1.0000  0.06117  0.33098  0.15463  0.0000
C13  C  1.0000  0.19271  0.39566  0.16163  0.0000
C14  C  1.0000  0.26093  0.32681  0.16288  0.0000
C15  C  1.0000  0.45845  0.32558  0.15535  0.0000
C16  C  1.0000  0.65796  0.33438  0.14396  0.0000
C17  C  1.0000  0.79338  0.40519  0.14094  0.0000
C18  C  1.0000  0.86173  0.33711  0.14464  0.0000
C19  C  1.0000  -0.00144  0.60084  0.14132  0.0000
C20  C  1.0000  0.06353  0.53245  0.14836  0.0000
C21  C  1.0000  0.19806  0.59329  0.15258  0.0000
C22  C  1.0000  0.86457  0.53971  0.13607  0.0000
C23  C  1.0000  0.00437  0.80254  0.13767  0.0000
C24  C  1.0000  0.07058  0.73393  0.14109  0.0000
C25  C  1.0000  0.20436  0.79601  0.14445  0.0000
C26  C  1.0000  0.27332  0.72789  0.14590  0.0000
C27  C  1.0000  0.40944  0.79733  0.13987  0.0000
C28  C  1.0000  0.61356  0.81077  0.12419  0.0000
C29  C  1.0000  0.80777  0.80915  0.12400  0.0000
C30  C  1.0000  0.87323  0.73981  0.12848  0.0000
C31  C  1.0000  0.00273  0.00171  0.14318  0.0000
C32  C  1.0000  0.06859  0.93398  0.14383  0.0000
C33  C  1.0000  0.20045  0.99661  0.14942  0.0000
C34  C  1.0000  0.26826  0.92977  0.14656  0.0000
C35  C  1.0000  0.40095  0.99667  0.14550  0.0000
C36  C  1.0000  0.46971  0.93119  0.13955  0.0000
C37  C  1.0000  0.60269  0.00302  0.13643  0.0000
C38  C  1.0000  0.67386  0.94154  0.12925  0.0000
C39  C  1.0000  0.80561  0.00697  0.13319  0.0000
C40  C  1.0000  0.87229  0.93949  0.13308  0.0000
N1  N  1.0000  0.58503  0.39286  0.14372  0.0000
N2  N  1.0000  0.80590  0.60988  0.12527  0.0000
N3  N  1.0000  0.67888  0.74718  0.11434  0.0000
N4  N  1.0000  0.39200  0.38734  0.16346  0.0000
N5  N  1.0000  0.25341  0.52342  0.16262  0.0000
N6  N  1.0000  0.48676  0.74358  0.13420  0.0000
Au1  Au  1.0000  0.44508  0.56641  0.15364  0.0000
V1  V  1.0000  0.63025  0.56176  0.10786  0.0000
