data_CNAuW
_audit_creation_method           'pos2cif.pl'
_cell_length_a               12.3170003891
_cell_length_b               12.3170003891315
_cell_length_c               20
_cell_angle_alpha            90
_cell_angle_beta             90
_cell_angle_gamma            120.010002136348
_symmetry_space_group_H-M        'P1'
_symmetry_Int_Tables_number      '1'
_symmetry_cell_setting           'triclinic'
loop_
_symmetry_equiv_pos_as_xyz
x,y,z

loop_
_atom_site_label
_atom_site_type_symbol
_atom_site_occupancy
_atom_site_fract_x
_atom_site_fract_y
_atom_site_fract_z
_atom_site_U_iso_or_equiv
C1  C  1.0000  0.99746  0.19940  0.12769  0.0000
C2  C  1.0000  0.06413  0.13217  0.12462  0.0000
C3  C  1.0000  0.19605  0.19529  0.12409  0.0000
C4  C  1.0000  0.26361  0.12836  0.12741  0.0000
C5  C  1.0000  0.39533  0.19392  0.13383  0.0000
C6  C  1.0000  0.46449  0.12989  0.13966  0.0000
C7  C  1.0000  0.59743  0.20154  0.14388  0.0000
C8  C  1.0000  0.66612  0.13595  0.14353  0.0000
C9  C  1.0000  0.79832  0.20360  0.13955  0.0000
C10  C  1.0000  0.86617  0.13674  0.13541  0.0000
C11  C  1.0000  0.99472  0.39975  0.13477  0.0000
C12  C  1.0000  0.06052  0.33078  0.12799  0.0000
C13  C  1.0000  0.19234  0.39517  0.12675  0.0000
C14  C  1.0000  0.26006  0.32626  0.12795  0.0000
C15  C  1.0000  0.45614  0.32464  0.14216  0.0000
C16  C  1.0000  0.65789  0.33386  0.14959  0.0000
C17  C  1.0000  0.79327  0.40506  0.14849  0.0000
C18  C  1.0000  0.86145  0.33708  0.14017  0.0000
C19  C  1.0000  -0.00096  0.60091  0.14428  0.0000
C20  C  1.0000  0.06389  0.53226  0.13824  0.0000
C21  C  1.0000  0.19852  0.59335  0.13711  0.0000
C22  C  1.0000  0.86569  0.53970  0.15161  0.0000
C23  C  1.0000  0.00512  0.80277  0.14124  0.0000
C24  C  1.0000  0.07128  0.73402  0.14210  0.0000
C25  C  1.0000  0.20484  0.79616  0.14072  0.0000
C26  C  1.0000  0.27356  0.72778  0.14381  0.0000
C27  C  1.0000  0.40934  0.79761  0.15133  0.0000
C28  C  1.0000  0.61445  0.81173  0.16256  0.0000
C29  C  1.0000  0.81008  0.81077  0.15567  0.0000
C30  C  1.0000  0.87512  0.74160  0.15256  0.0000
C31  C  1.0000  0.00211  0.00070  0.13054  0.0000
C32  C  1.0000  0.06870  0.93358  0.13224  0.0000
C33  C  1.0000  0.20097  0.99645  0.13038  0.0000
C34  C  1.0000  0.26859  0.92974  0.13707  0.0000
C35  C  1.0000  0.40108  0.99679  0.14072  0.0000
C36  C  1.0000  0.46980  0.93126  0.14771  0.0000
C37  C  1.0000  0.60271  0.00278  0.14768  0.0000
C38  C  1.0000  0.67418  0.94092  0.15128  0.0000
C39  C  1.0000  0.80514  0.00627  0.14276  0.0000
C40  C  1.0000  0.87208  0.93902  0.14172  0.0000
N1  N  1.0000  0.58253  0.39047  0.15808  0.0000
N2  N  1.0000  0.80889  0.61220  0.16298  0.0000
N3  N  1.0000  0.68301  0.75013  0.17257  0.0000
N4  N  1.0000  0.38876  0.38615  0.13918  0.0000
N5  N  1.0000  0.25441  0.52304  0.12964  0.0000
N6  N  1.0000  0.48639  0.74450  0.16196  0.0000
Au1  Au  1.0000  0.43726  0.56336  0.15408  0.0000
W1  W  1.0000  0.63402  0.56565  0.19259  0.0000
