data_CNAuY
_audit_creation_method           'pos2cif.pl'
_cell_length_a               12.3170003891
_cell_length_b               12.3170003891315
_cell_length_c               20
_cell_angle_alpha            90
_cell_angle_beta             90
_cell_angle_gamma            120.010002136348
_symmetry_space_group_H-M        'P1'
_symmetry_Int_Tables_number      '1'
_symmetry_cell_setting           'triclinic'
loop_
_symmetry_equiv_pos_as_xyz
x,y,z

loop_
_atom_site_label
_atom_site_type_symbol
_atom_site_occupancy
_atom_site_fract_x
_atom_site_fract_y
_atom_site_fract_z
_atom_site_U_iso_or_equiv
C1  C  1.0000  -0.00177  0.19956  0.13001  0.0000
C2  C  1.0000  0.06522  0.13302  0.12882  0.0000
C3  C  1.0000  0.19709  0.19674  0.13330  0.0000
C4  C  1.0000  0.26386  0.12918  0.13585  0.0000
C5  C  1.0000  0.39546  0.19475  0.14219  0.0000
C6  C  1.0000  0.46424  0.13030  0.14356  0.0000
C7  C  1.0000  0.59745  0.20131  0.14521  0.0000
C8  C  1.0000  0.66586  0.13587  0.14084  0.0000
C9  C  1.0000  0.79822  0.20277  0.13723  0.0000
C10  C  1.0000  0.86616  0.13621  0.13262  0.0000
C11  C  1.0000  0.99526  0.39909  0.13575  0.0000
C12  C  1.0000  0.06188  0.33086  0.13231  0.0000
C13  C  1.0000  0.19377  0.39569  0.13581  0.0000
C14  C  1.0000  0.26136  0.32710  0.14012  0.0000
C15  C  1.0000  0.45845  0.32580  0.15224  0.0000
C16  C  1.0000  0.65807  0.33362  0.15082  0.0000
C17  C  1.0000  0.79358  0.40378  0.14515  0.0000
C18  C  1.0000  0.86186  0.33588  0.13895  0.0000
C19  C  1.0000  -0.00105  0.60010  0.13939  0.0000
C20  C  1.0000  0.06399  0.53176  0.13842  0.0000
C21  C  1.0000  0.19842  0.59301  0.14084  0.0000
C22  C  1.0000  0.86523  0.53815  0.14196  0.0000
C23  C  1.0000  0.00362  0.80192  0.13623  0.0000
C24  C  1.0000  0.07002  0.73365  0.13849  0.0000
C25  C  1.0000  0.20351  0.79618  0.14086  0.0000
C26  C  1.0000  0.27226  0.72815  0.14517  0.0000
C27  C  1.0000  0.40793  0.79822  0.15040  0.0000
C28  C  1.0000  0.61161  0.81101  0.15010  0.0000
C29  C  1.0000  0.80500  0.80668  0.14152  0.0000
C30  C  1.0000  0.87057  0.73726  0.13947  0.0000
C31  C  1.0000  0.00203  0.00106  0.12993  0.0000
C32  C  1.0000  0.06812  0.93338  0.13264  0.0000
C33  C  1.0000  0.20063  0.99717  0.13491  0.0000
C34  C  1.0000  0.26767  0.92999  0.13963  0.0000
C35  C  1.0000  0.40016  0.99717  0.14245  0.0000
C36  C  1.0000  0.46892  0.93158  0.14546  0.0000
C37  C  1.0000  0.60172  0.00291  0.14227  0.0000
C38  C  1.0000  0.67205  0.94028  0.14048  0.0000
C39  C  1.0000  0.80382  0.00500  0.13455  0.0000
C40  C  1.0000  0.87074  0.93796  0.13405  0.0000
N1  N  1.0000  0.58553  0.39135  0.16203  0.0000
N2  N  1.0000  0.80467  0.60699  0.14313  0.0000
N3  N  1.0000  0.67662  0.74695  0.15321  0.0000
N4  N  1.0000  0.39007  0.38662  0.15422  0.0000
N5  N  1.0000  0.25499  0.52325  0.13934  0.0000
N6  N  1.0000  0.48500  0.74519  0.15919  0.0000
Au1  Au  1.0000  0.43956  0.56350  0.16986  0.0000
Y1  Y  1.0000  0.65762  0.58319  0.21096  0.0000
