data_CNAuZn
_audit_creation_method           'pos2cif.pl'
_cell_length_a               12.3170003891
_cell_length_b               12.3170003891315
_cell_length_c               20
_cell_angle_alpha            90
_cell_angle_beta             90
_cell_angle_gamma            120.010002136348
_symmetry_space_group_H-M        'P1'
_symmetry_Int_Tables_number      '1'
_symmetry_cell_setting           'triclinic'
loop_
_symmetry_equiv_pos_as_xyz
x,y,z

loop_
_atom_site_label
_atom_site_type_symbol
_atom_site_occupancy
_atom_site_fract_x
_atom_site_fract_y
_atom_site_fract_z
_atom_site_U_iso_or_equiv
C1  C  1.0000  0.99832  0.20047  0.13008  0.0000
C2  C  1.0000  0.06556  0.13374  0.12770  0.0000
C3  C  1.0000  0.19709  0.19672  0.13447  0.0000
C4  C  1.0000  0.26355  0.12869  0.13640  0.0000
C5  C  1.0000  0.39455  0.19316  0.14367  0.0000
C6  C  1.0000  0.46447  0.13000  0.14353  0.0000
C7  C  1.0000  0.59741  0.20088  0.14579  0.0000
C8  C  1.0000  0.66606  0.13611  0.14129  0.0000
C9  C  1.0000  0.79854  0.20394  0.13779  0.0000
C10  C  1.0000  0.86629  0.13754  0.13119  0.0000
C11  C  1.0000  0.99523  0.39997  0.13976  0.0000
C12  C  1.0000  0.06164  0.33156  0.13577  0.0000
C13  C  1.0000  0.19371  0.39599  0.14107  0.0000
C14  C  1.0000  0.26116  0.32651  0.14478  0.0000
C15  C  1.0000  0.45663  0.32350  0.15471  0.0000
C16  C  1.0000  0.65735  0.33383  0.15152  0.0000
C17  C  1.0000  0.79300  0.40515  0.14854  0.0000
C18  C  1.0000  0.86139  0.33732  0.14170  0.0000
C19  C  1.0000  -0.00035  0.60136  0.14345  0.0000
C20  C  1.0000  0.06427  0.53258  0.14288  0.0000
C21  C  1.0000  0.19868  0.59308  0.14525  0.0000
C22  C  1.0000  0.86542  0.54083  0.14784  0.0000
C23  C  1.0000  0.00510  0.80272  0.13440  0.0000
C24  C  1.0000  0.07097  0.73419  0.13998  0.0000
C25  C  1.0000  0.20510  0.79650  0.14189  0.0000
C26  C  1.0000  0.27361  0.72870  0.14765  0.0000
C27  C  1.0000  0.40965  0.79815  0.15156  0.0000
C28  C  1.0000  0.61277  0.80978  0.14692  0.0000
C29  C  1.0000  0.80560  0.80791  0.13614  0.0000
C30  C  1.0000  0.87317  0.73905  0.13901  0.0000
C31  C  1.0000  0.00298  0.00187  0.12623  0.0000
C32  C  1.0000  0.06917  0.93423  0.12930  0.0000
C33  C  1.0000  0.20100  0.99697  0.13343  0.0000
C34  C  1.0000  0.26833  0.92990  0.13909  0.0000
C35  C  1.0000  0.40081  0.99665  0.14206  0.0000
C36  C  1.0000  0.46966  0.93152  0.14532  0.0000
C37  C  1.0000  0.60262  0.00301  0.14179  0.0000
C38  C  1.0000  0.67272  0.94037  0.13790  0.0000
C39  C  1.0000  0.80379  0.00566  0.13058  0.0000
C40  C  1.0000  0.87109  0.93859  0.12878  0.0000
N1  N  1.0000  0.58336  0.38892  0.15949  0.0000
N2  N  1.0000  0.80911  0.61264  0.14996  0.0000
N3  N  1.0000  0.67829  0.74712  0.14432  0.0000
N4  N  1.0000  0.38791  0.38349  0.16112  0.0000
N5  N  1.0000  0.25490  0.52322  0.14501  0.0000
N6  N  1.0000  0.48711  0.74568  0.16076  0.0000
Au1  Au  1.0000  0.43972  0.56272  0.17609  0.0000
Zn1  Zn  1.0000  0.63850  0.56864  0.17394  0.0000
