data_CNAuZr
_audit_creation_method           'pos2cif.pl'
_cell_length_a               12.3170003891
_cell_length_b               12.3170003891315
_cell_length_c               20
_cell_angle_alpha            90
_cell_angle_beta             90
_cell_angle_gamma            120.010002136348
_symmetry_space_group_H-M        'P1'
_symmetry_Int_Tables_number      '1'
_symmetry_cell_setting           'triclinic'
loop_
_symmetry_equiv_pos_as_xyz
x,y,z

loop_
_atom_site_label
_atom_site_type_symbol
_atom_site_occupancy
_atom_site_fract_x
_atom_site_fract_y
_atom_site_fract_z
_atom_site_U_iso_or_equiv
C1  C  1.0000  -0.00188  0.19940  0.13189  0.0000
C2  C  1.0000  0.06502  0.13278  0.13149  0.0000
C3  C  1.0000  0.19682  0.19630  0.13539  0.0000
C4  C  1.0000  0.26391  0.12914  0.13796  0.0000
C5  C  1.0000  0.39558  0.19479  0.14373  0.0000
C6  C  1.0000  0.46428  0.13025  0.14522  0.0000
C7  C  1.0000  0.59762  0.20186  0.14633  0.0000
C8  C  1.0000  0.66586  0.13615  0.14176  0.0000
C9  C  1.0000  0.79817  0.20278  0.13795  0.0000
C10  C  1.0000  0.86619  0.13622  0.13412  0.0000
C11  C  1.0000  0.99532  0.39911  0.13576  0.0000
C12  C  1.0000  0.06169  0.33071  0.13349  0.0000
C13  C  1.0000  0.19330  0.39520  0.13728  0.0000
C14  C  1.0000  0.26085  0.32658  0.14111  0.0000
C15  C  1.0000  0.45836  0.32614  0.15223  0.0000
C16  C  1.0000  0.65858  0.33436  0.15068  0.0000
C17  C  1.0000  0.79358  0.40363  0.14375  0.0000
C18  C  1.0000  0.86177  0.33575  0.13863  0.0000
C19  C  1.0000  -0.00113  0.59993  0.13823  0.0000
C20  C  1.0000  0.06408  0.53161  0.13797  0.0000
C21  C  1.0000  0.19843  0.59297  0.14114  0.0000
C22  C  1.0000  0.86557  0.53745  0.13972  0.0000
C23  C  1.0000  0.00378  0.80177  0.13743  0.0000
C24  C  1.0000  0.06994  0.73352  0.13849  0.0000
C25  C  1.0000  0.20346  0.79612  0.14129  0.0000
C26  C  1.0000  0.27214  0.72792  0.14493  0.0000
C27  C  1.0000  0.40769  0.79791  0.14931  0.0000
C28  C  1.0000  0.61114  0.81110  0.14811  0.0000
C29  C  1.0000  0.80521  0.80665  0.14099  0.0000
C30  C  1.0000  0.87045  0.73713  0.13849  0.0000
C31  C  1.0000  0.00201  0.00102  0.13298  0.0000
C32  C  1.0000  0.06816  0.93324  0.13535  0.0000
C33  C  1.0000  0.20060  0.99704  0.13722  0.0000
C34  C  1.0000  0.26760  0.92985  0.14108  0.0000
C35  C  1.0000  0.40029  0.99726  0.14385  0.0000
C36  C  1.0000  0.46894  0.93150  0.14569  0.0000
C37  C  1.0000  0.60172  0.00310  0.14265  0.0000
C38  C  1.0000  0.67209  0.94051  0.14049  0.0000
C39  C  1.0000  0.80397  0.00514  0.13597  0.0000
C40  C  1.0000  0.87097  0.93834  0.13615  0.0000
N1  N  1.0000  0.58606  0.39330  0.16153  0.0000
N2  N  1.0000  0.80445  0.60625  0.13933  0.0000
N3  N  1.0000  0.67623  0.74681  0.15070  0.0000
N4  N  1.0000  0.38992  0.38642  0.15307  0.0000
N5  N  1.0000  0.25471  0.52271  0.14095  0.0000
N6  N  1.0000  0.48455  0.74429  0.15592  0.0000
Au1  Au  1.0000  0.44060  0.56364  0.16482  0.0000
Zr1  Zr  1.0000  0.65836  0.58550  0.19930  0.0000
