data_CNCd
_audit_creation_method           'pos2cif.pl'
_cell_length_a               12.3170003891
_cell_length_b               12.3170003891315
_cell_length_c               20
_cell_angle_alpha            90
_cell_angle_beta             90
_cell_angle_gamma            120.010002136348
_symmetry_space_group_H-M        'P1'
_symmetry_Int_Tables_number      '1'
_symmetry_cell_setting           'triclinic'
loop_
_symmetry_equiv_pos_as_xyz
x,y,z

loop_
_atom_site_label
_atom_site_type_symbol
_atom_site_occupancy
_atom_site_fract_x
_atom_site_fract_y
_atom_site_fract_z
_atom_site_U_iso_or_equiv
C1  C  1.0000  -0.00082  0.20085  0.13306  0.0000
C2  C  1.0000  0.06512  0.13294  0.13173  0.0000
C3  C  1.0000  0.19817  0.19812  0.13328  0.0000
C4  C  1.0000  0.26380  0.12956  0.13246  0.0000
C5  C  1.0000  0.39569  0.19546  0.13488  0.0000
C6  C  1.0000  0.46449  0.13124  0.13503  0.0000
C7  C  1.0000  0.59753  0.20162  0.13719  0.0000
C8  C  1.0000  0.66636  0.13699  0.13500  0.0000
C9  C  1.0000  0.79924  0.20411  0.13583  0.0000
C10  C  1.0000  0.86696  0.13746  0.13255  0.0000
C11  C  1.0000  -0.00286  0.40042  0.14193  0.0000
C12  C  1.0000  0.06425  0.33286  0.13791  0.0000
C13  C  1.0000  0.19740  0.39913  0.14266  0.0000
C14  C  1.0000  0.26738  0.33046  0.13916  0.0000
C15  C  1.0000  0.46043  0.32808  0.14165  0.0000
C16  C  1.0000  0.65733  0.33477  0.14438  0.0000
C17  C  1.0000  0.79395  0.40441  0.14674  0.0000
C18  C  1.0000  0.86249  0.33730  0.14146  0.0000
C19  C  1.0000  0.00058  0.60111  0.14502  0.0000
C20  C  1.0000  0.06649  0.53287  0.14481  0.0000
C21  C  1.0000  0.20115  0.59406  0.14857  0.0000
C22  C  1.0000  0.86614  0.53988  0.14947  0.0000
C23  C  1.0000  0.00128  0.80055  0.13855  0.0000
C24  C  1.0000  0.06920  0.73357  0.14228  0.0000
C25  C  1.0000  0.20384  0.79683  0.14151  0.0000
C26  C  1.0000  0.27261  0.72970  0.14614  0.0000
C27  C  1.0000  0.40885  0.80025  0.14366  0.0000
C28  C  1.0000  0.60786  0.80841  0.14025  0.0000
C29  C  1.0000  0.79672  0.80179  0.13993  0.0000
C30  C  1.0000  0.86761  0.73365  0.14397  0.0000
C31  C  1.0000  0.00012  0.00008  0.13207  0.0000
C32  C  1.0000  0.06657  0.93262  0.13350  0.0000
C33  C  1.0000  0.19914  0.99660  0.13298  0.0000
C34  C  1.0000  0.26702  0.93015  0.13621  0.0000
C35  C  1.0000  0.39992  0.99797  0.13530  0.0000
C36  C  1.0000  0.46884  0.93352  0.13693  0.0000
C37  C  1.0000  0.60184  0.00392  0.13442  0.0000
C38  C  1.0000  0.67110  0.94017  0.13390  0.0000
C39  C  1.0000  0.80264  0.00467  0.13207  0.0000
C40  C  1.0000  0.86708  0.93491  0.13366  0.0000
N1  N  1.0000  0.58689  0.39270  0.14974  0.0000
N2  N  1.0000  0.80667  0.60841  0.15475  0.0000
N3  N  1.0000  0.66904  0.74139  0.14345  0.0000
N4  N  1.0000  0.39540  0.39218  0.14374  0.0000
N5  N  1.0000  0.25965  0.52456  0.15246  0.0000
N6  N  1.0000  0.48082  0.74420  0.14778  0.0000
Cd1  Cd  1.0000  0.44872  0.57236  0.20268  0.0000
Cd2  Cd  1.0000  0.64636  0.55228  0.23525  0.0000
