data_CNCdCo
_audit_creation_method           'pos2cif.pl'
_cell_length_a               12.3170003891
_cell_length_b               12.3170003891315
_cell_length_c               20
_cell_angle_alpha            90
_cell_angle_beta             90
_cell_angle_gamma            120.010002136348
_symmetry_space_group_H-M        'P1'
_symmetry_Int_Tables_number      '1'
_symmetry_cell_setting           'triclinic'
loop_
_symmetry_equiv_pos_as_xyz
x,y,z

loop_
_atom_site_label
_atom_site_type_symbol
_atom_site_occupancy
_atom_site_fract_x
_atom_site_fract_y
_atom_site_fract_z
_atom_site_U_iso_or_equiv
C1  C  1.0000  -0.00015  0.20151  0.13659  0.0000
C2  C  1.0000  0.06676  0.13463  0.13705  0.0000
C3  C  1.0000  0.19993  0.19996  0.13794  0.0000
C4  C  1.0000  0.26433  0.13002  0.13846  0.0000
C5  C  1.0000  0.39619  0.19451  0.13907  0.0000
C6  C  1.0000  0.46486  0.13003  0.13963  0.0000
C7  C  1.0000  0.59768  0.20084  0.14010  0.0000
C8  C  1.0000  0.66627  0.13536  0.13817  0.0000
C9  C  1.0000  0.79913  0.20355  0.13797  0.0000
C10  C  1.0000  0.86712  0.13704  0.13610  0.0000
C11  C  1.0000  -0.00318  0.40058  0.14203  0.0000
C12  C  1.0000  0.06491  0.33362  0.13953  0.0000
C13  C  1.0000  0.19873  0.40085  0.14351  0.0000
C14  C  1.0000  0.26941  0.33337  0.13970  0.0000
C15  C  1.0000  0.45887  0.32626  0.14121  0.0000
C16  C  1.0000  0.65856  0.33475  0.14292  0.0000
C17  C  1.0000  0.79352  0.40452  0.14284  0.0000
C18  C  1.0000  0.86243  0.33709  0.14081  0.0000
C19  C  1.0000  -0.00221  0.60103  0.14463  0.0000
C20  C  1.0000  0.06456  0.53292  0.14529  0.0000
C21  C  1.0000  0.19979  0.59378  0.15015  0.0000
C22  C  1.0000  0.86214  0.53940  0.14359  0.0000
C23  C  1.0000  0.00251  0.80161  0.14217  0.0000
C24  C  1.0000  0.06911  0.73362  0.14458  0.0000
C25  C  1.0000  0.20379  0.79647  0.14550  0.0000
C26  C  1.0000  0.27242  0.72902  0.14875  0.0000
C27  C  1.0000  0.40898  0.79796  0.14594  0.0000
C28  C  1.0000  0.60635  0.80305  0.14064  0.0000
C29  C  1.0000  0.80166  0.80437  0.13987  0.0000
C30  C  1.0000  0.86971  0.73732  0.14131  0.0000
C31  C  1.0000  0.00212  0.00181  0.13788  0.0000
C32  C  1.0000  0.06791  0.93404  0.14027  0.0000
C33  C  1.0000  0.20022  0.99733  0.14018  0.0000
C34  C  1.0000  0.26761  0.93010  0.14218  0.0000
C35  C  1.0000  0.40050  0.99689  0.14063  0.0000
C36  C  1.0000  0.46907  0.93149  0.14077  0.0000
C37  C  1.0000  0.60201  0.00137  0.13786  0.0000
C38  C  1.0000  0.67103  0.93648  0.13649  0.0000
C39  C  1.0000  0.80308  0.00436  0.13569  0.0000
C40  C  1.0000  0.86900  0.93651  0.13738  0.0000
N1  N  1.0000  0.58755  0.39385  0.14584  0.0000
N2  N  1.0000  0.80107  0.60879  0.14230  0.0000
N3  N  1.0000  0.67165  0.73592  0.14215  0.0000
N4  N  1.0000  0.39885  0.39429  0.14056  0.0000
N5  N  1.0000  0.26011  0.52608  0.15360  0.0000
N6  N  1.0000  0.48035  0.74004  0.14811  0.0000
Cd1  Cd  1.0000  0.45105  0.57317  0.21728  0.0000
Co1  Co  1.0000  0.62962  0.55956  0.14670  0.0000
