data_CNCdCr
_audit_creation_method           'pos2cif.pl'
_cell_length_a               12.3170003891
_cell_length_b               12.3170003891315
_cell_length_c               20
_cell_angle_alpha            90
_cell_angle_beta             90
_cell_angle_gamma            120.010002136348
_symmetry_space_group_H-M        'P1'
_symmetry_Int_Tables_number      '1'
_symmetry_cell_setting           'triclinic'
loop_
_symmetry_equiv_pos_as_xyz
x,y,z

loop_
_atom_site_label
_atom_site_type_symbol
_atom_site_occupancy
_atom_site_fract_x
_atom_site_fract_y
_atom_site_fract_z
_atom_site_U_iso_or_equiv
C1  C  1.0000  0.00134  0.20245  0.13906  0.0000
C2  C  1.0000  0.06858  0.13600  0.13918  0.0000
C3  C  1.0000  0.20247  0.20216  0.13888  0.0000
C4  C  1.0000  0.26417  0.12944  0.13899  0.0000
C5  C  1.0000  0.39540  0.19179  0.13871  0.0000
C6  C  1.0000  0.46477  0.12845  0.13922  0.0000
C7  C  1.0000  0.59793  0.19882  0.13930  0.0000
C8  C  1.0000  0.66698  0.13495  0.13938  0.0000
C9  C  1.0000  0.79996  0.20355  0.13937  0.0000
C10  C  1.0000  0.86834  0.13765  0.13914  0.0000
C11  C  1.0000  -0.00203  0.40080  0.14042  0.0000
C12  C  1.0000  0.06691  0.33464  0.13952  0.0000
C13  C  1.0000  0.20211  0.40411  0.14034  0.0000
C14  C  1.0000  0.27414  0.33659  0.13893  0.0000
C15  C  1.0000  0.45906  0.32286  0.13872  0.0000
C16  C  1.0000  0.65919  0.33192  0.14002  0.0000
C17  C  1.0000  0.79398  0.40357  0.14073  0.0000
C18  C  1.0000  0.86330  0.33692  0.14011  0.0000
C19  C  1.0000  -0.00285  0.60059  0.14165  0.0000
C20  C  1.0000  0.06432  0.53300  0.14149  0.0000
C21  C  1.0000  0.19973  0.59391  0.14296  0.0000
C22  C  1.0000  0.86154  0.53888  0.14154  0.0000
C23  C  1.0000  0.00118  0.80102  0.14118  0.0000
C24  C  1.0000  0.06796  0.73311  0.14184  0.0000
C25  C  1.0000  0.20318  0.79609  0.14210  0.0000
C26  C  1.0000  0.27187  0.72922  0.14315  0.0000
C27  C  1.0000  0.40905  0.79751  0.14262  0.0000
C28  C  1.0000  0.60420  0.80457  0.14121  0.0000
C29  C  1.0000  0.80031  0.80484  0.14093  0.0000
C30  C  1.0000  0.86778  0.73597  0.14133  0.0000
C31  C  1.0000  0.00279  0.00269  0.13978  0.0000
C32  C  1.0000  0.06722  0.93359  0.14040  0.0000
C33  C  1.0000  0.19952  0.99669  0.14003  0.0000
C34  C  1.0000  0.26703  0.92976  0.14081  0.0000
C35  C  1.0000  0.40003  0.99583  0.14015  0.0000
C36  C  1.0000  0.46894  0.93120  0.14067  0.0000
C37  C  1.0000  0.60208  0.00167  0.13981  0.0000
C38  C  1.0000  0.67114  0.93800  0.13972  0.0000
C39  C  1.0000  0.80338  0.00504  0.13941  0.0000
C40  C  1.0000  0.86939  0.93725  0.13999  0.0000
N1  N  1.0000  0.58717  0.38794  0.14034  0.0000
N2  N  1.0000  0.80004  0.60745  0.14206  0.0000
N3  N  1.0000  0.67057  0.74001  0.14175  0.0000
N4  N  1.0000  0.40401  0.39564  0.13849  0.0000
N5  N  1.0000  0.26200  0.52918  0.14353  0.0000
N6  N  1.0000  0.47862  0.73878  0.14385  0.0000
Cd1  Cd  1.0000  0.45588  0.57974  0.26389  0.0000
Cr1  Cr  1.0000  0.61237  0.55532  0.14522  0.0000
