data_CNCdCu
_audit_creation_method           'pos2cif.pl'
_cell_length_a               12.3170003891
_cell_length_b               12.3170003891315
_cell_length_c               20
_cell_angle_alpha            90
_cell_angle_beta             90
_cell_angle_gamma            120.010002136348
_symmetry_space_group_H-M        'P1'
_symmetry_Int_Tables_number      '1'
_symmetry_cell_setting           'triclinic'
loop_
_symmetry_equiv_pos_as_xyz
x,y,z

loop_
_atom_site_label
_atom_site_type_symbol
_atom_site_occupancy
_atom_site_fract_x
_atom_site_fract_y
_atom_site_fract_z
_atom_site_U_iso_or_equiv
C1  C  1.0000  0.99861  0.20025  0.13336  0.0000
C2  C  1.0000  0.06492  0.13273  0.13220  0.0000
C3  C  1.0000  0.19707  0.19692  0.13582  0.0000
C4  C  1.0000  0.26379  0.12935  0.13677  0.0000
C5  C  1.0000  0.39541  0.19456  0.14130  0.0000
C6  C  1.0000  0.46498  0.13117  0.14156  0.0000
C7  C  1.0000  0.59780  0.20223  0.14276  0.0000
C8  C  1.0000  0.66619  0.13646  0.13893  0.0000
C9  C  1.0000  0.79879  0.20359  0.13734  0.0000
C10  C  1.0000  0.86632  0.13657  0.13343  0.0000
C11  C  1.0000  0.99626  0.39993  0.14138  0.0000
C12  C  1.0000  0.06308  0.33201  0.13854  0.0000
C13  C  1.0000  0.19564  0.39727  0.14473  0.0000
C14  C  1.0000  0.26386  0.32838  0.14288  0.0000
C15  C  1.0000  0.45721  0.32573  0.14911  0.0000
C16  C  1.0000  0.65799  0.33631  0.14740  0.0000
C17  C  1.0000  0.79362  0.40511  0.14422  0.0000
C18  C  1.0000  0.86203  0.33713  0.14063  0.0000
C19  C  1.0000  0.00137  0.60142  0.14282  0.0000
C20  C  1.0000  0.06635  0.53271  0.14476  0.0000
C21  C  1.0000  0.20072  0.59337  0.15056  0.0000
C22  C  1.0000  0.86659  0.54058  0.14256  0.0000
C23  C  1.0000  0.00468  0.80224  0.13718  0.0000
C24  C  1.0000  0.07107  0.73407  0.14130  0.0000
C25  C  1.0000  0.20510  0.79694  0.14354  0.0000
C26  C  1.0000  0.27338  0.72912  0.14890  0.0000
C27  C  1.0000  0.40934  0.79955  0.14785  0.0000
C28  C  1.0000  0.60812  0.80592  0.14363  0.0000
C29  C  1.0000  0.80267  0.80411  0.13831  0.0000
C30  C  1.0000  0.87219  0.73706  0.13784  0.0000
C31  C  1.0000  0.00149  0.00043  0.13187  0.0000
C32  C  1.0000  0.06865  0.93390  0.13450  0.0000
C33  C  1.0000  0.20073  0.99724  0.13634  0.0000
C34  C  1.0000  0.26833  0.93043  0.14030  0.0000
C35  C  1.0000  0.40101  0.99796  0.14103  0.0000
C36  C  1.0000  0.46946  0.93278  0.14205  0.0000
C37  C  1.0000  0.60220  0.00268  0.13855  0.0000
C38  C  1.0000  0.67135  0.93811  0.13633  0.0000
C39  C  1.0000  0.80299  0.00417  0.13305  0.0000
C40  C  1.0000  0.86890  0.93580  0.13321  0.0000
N1  N  1.0000  0.58464  0.39303  0.15488  0.0000
N2  N  1.0000  0.80865  0.60976  0.14060  0.0000
N3  N  1.0000  0.67300  0.73993  0.14595  0.0000
N4  N  1.0000  0.39145  0.38813  0.15115  0.0000
N5  N  1.0000  0.25843  0.52335  0.15533  0.0000
N6  N  1.0000  0.48225  0.74350  0.15214  0.0000
Cd1  Cd  1.0000  0.44217  0.56820  0.20492  0.0000
Cu1  Cu  1.0000  0.63621  0.56895  0.15816  0.0000
