data_CNCdFe
_audit_creation_method           'pos2cif.pl'
_cell_length_a               12.3170003891
_cell_length_b               12.3170003891315
_cell_length_c               20
_cell_angle_alpha            90
_cell_angle_beta             90
_cell_angle_gamma            120.010002136348
_symmetry_space_group_H-M        'P1'
_symmetry_Int_Tables_number      '1'
_symmetry_cell_setting           'triclinic'
loop_
_symmetry_equiv_pos_as_xyz
x,y,z

loop_
_atom_site_label
_atom_site_type_symbol
_atom_site_occupancy
_atom_site_fract_x
_atom_site_fract_y
_atom_site_fract_z
_atom_site_U_iso_or_equiv
C1  C  1.0000  0.00055  0.20200  0.13653  0.0000
C2  C  1.0000  0.06761  0.13539  0.13709  0.0000
C3  C  1.0000  0.20106  0.20107  0.13782  0.0000
C4  C  1.0000  0.26432  0.12988  0.13832  0.0000
C5  C  1.0000  0.39580  0.19342  0.13879  0.0000
C6  C  1.0000  0.46472  0.12928  0.13946  0.0000
C7  C  1.0000  0.59777  0.20002  0.13961  0.0000
C8  C  1.0000  0.66649  0.13502  0.13808  0.0000
C9  C  1.0000  0.79944  0.20357  0.13773  0.0000
C10  C  1.0000  0.86764  0.13728  0.13625  0.0000
C11  C  1.0000  -0.00283  0.40071  0.14130  0.0000
C12  C  1.0000  0.06579  0.33421  0.13901  0.0000
C13  C  1.0000  0.20001  0.40206  0.14267  0.0000
C14  C  1.0000  0.27119  0.33476  0.13905  0.0000
C15  C  1.0000  0.45865  0.32486  0.14015  0.0000
C16  C  1.0000  0.65886  0.33358  0.14194  0.0000
C17  C  1.0000  0.79364  0.40430  0.14199  0.0000
C18  C  1.0000  0.86278  0.33699  0.14012  0.0000
C19  C  1.0000  -0.00289  0.60089  0.14405  0.0000
C20  C  1.0000  0.06427  0.53298  0.14446  0.0000
C21  C  1.0000  0.19958  0.59382  0.14909  0.0000
C22  C  1.0000  0.86156  0.53915  0.14313  0.0000
C23  C  1.0000  0.00208  0.80161  0.14214  0.0000
C24  C  1.0000  0.06863  0.73352  0.14424  0.0000
C25  C  1.0000  0.20339  0.79623  0.14508  0.0000
C26  C  1.0000  0.27211  0.72898  0.14808  0.0000
C27  C  1.0000  0.40889  0.79769  0.14569  0.0000
C28  C  1.0000  0.60564  0.80321  0.14137  0.0000
C29  C  1.0000  0.80163  0.80483  0.14047  0.0000
C30  C  1.0000  0.86925  0.73758  0.14165  0.0000
C31  C  1.0000  0.00251  0.00238  0.13809  0.0000
C32  C  1.0000  0.06771  0.93402  0.14028  0.0000
C33  C  1.0000  0.19999  0.99713  0.14007  0.0000
C34  C  1.0000  0.26734  0.92992  0.14202  0.0000
C35  C  1.0000  0.40030  0.99645  0.14061  0.0000
C36  C  1.0000  0.46904  0.93120  0.14088  0.0000
C37  C  1.0000  0.60199  0.00115  0.13827  0.0000
C38  C  1.0000  0.67099  0.93652  0.13737  0.0000
C39  C  1.0000  0.80331  0.00465  0.13639  0.0000
C40  C  1.0000  0.86937  0.93716  0.13797  0.0000
N1  N  1.0000  0.58718  0.39157  0.14455  0.0000
N2  N  1.0000  0.79985  0.60873  0.14283  0.0000
N3  N  1.0000  0.67159  0.73659  0.14304  0.0000
N4  N  1.0000  0.40123  0.39510  0.13917  0.0000
N5  N  1.0000  0.26089  0.52719  0.15218  0.0000
N6  N  1.0000  0.47978  0.73939  0.14802  0.0000
Cd1  Cd  1.0000  0.45138  0.57580  0.22718  0.0000
Fe1  Fe  1.0000  0.62494  0.55732  0.14764  0.0000
