data_CNCdHf
_audit_creation_method           'pos2cif.pl'
_cell_length_a               12.3170003891
_cell_length_b               12.3170003891315
_cell_length_c               20
_cell_angle_alpha            90
_cell_angle_beta             90
_cell_angle_gamma            120.010002136348
_symmetry_space_group_H-M        'P1'
_symmetry_Int_Tables_number      '1'
_symmetry_cell_setting           'triclinic'
loop_
_symmetry_equiv_pos_as_xyz
x,y,z

loop_
_atom_site_label
_atom_site_type_symbol
_atom_site_occupancy
_atom_site_fract_x
_atom_site_fract_y
_atom_site_fract_z
_atom_site_U_iso_or_equiv
C1  C  1.0000  0.00257  0.20245  0.13842  0.0000
C2  C  1.0000  0.06941  0.13574  0.13804  0.0000
C3  C  1.0000  0.20260  0.20146  0.13889  0.0000
C4  C  1.0000  0.26458  0.12869  0.13844  0.0000
C5  C  1.0000  0.39604  0.19076  0.13857  0.0000
C6  C  1.0000  0.46574  0.12789  0.13795  0.0000
C7  C  1.0000  0.59911  0.19897  0.13819  0.0000
C8  C  1.0000  0.66811  0.13509  0.13746  0.0000
C9  C  1.0000  0.80095  0.20358  0.13825  0.0000
C10  C  1.0000  0.86951  0.13764  0.13723  0.0000
C11  C  1.0000  -0.00141  0.40053  0.14177  0.0000
C12  C  1.0000  0.06755  0.33428  0.14069  0.0000
C13  C  1.0000  0.20228  0.40306  0.14256  0.0000
C14  C  1.0000  0.27140  0.33479  0.14072  0.0000
C15  C  1.0000  0.45978  0.32117  0.13948  0.0000
C16  C  1.0000  0.66086  0.33150  0.13991  0.0000
C17  C  1.0000  0.79488  0.40363  0.14202  0.0000
C18  C  1.0000  0.86442  0.33678  0.14075  0.0000
C19  C  1.0000  -0.00293  0.60011  0.14293  0.0000
C20  C  1.0000  0.06483  0.53268  0.14280  0.0000
C21  C  1.0000  0.20058  0.59334  0.14383  0.0000
C22  C  1.0000  0.86138  0.53876  0.14397  0.0000
C23  C  1.0000  0.00178  0.80051  0.14020  0.0000
C24  C  1.0000  0.06874  0.73294  0.14185  0.0000
C25  C  1.0000  0.20369  0.79560  0.14114  0.0000
C26  C  1.0000  0.27278  0.72855  0.14222  0.0000
C27  C  1.0000  0.40956  0.79652  0.14009  0.0000
C28  C  1.0000  0.60642  0.80737  0.13728  0.0000
C29  C  1.0000  0.80456  0.80633  0.13827  0.0000
C30  C  1.0000  0.86825  0.73592  0.14147  0.0000
C31  C  1.0000  0.00422  0.00267  0.13746  0.0000
C32  C  1.0000  0.06785  0.93299  0.13840  0.0000
C33  C  1.0000  0.20035  0.99640  0.13855  0.0000
C34  C  1.0000  0.26789  0.92929  0.13924  0.0000
C35  C  1.0000  0.40093  -0.00478  0.13825  0.0000
C36  C  1.0000  0.46987  0.93032  0.13809  0.0000
C37  C  1.0000  0.60309  0.00195  0.13680  0.0000
C38  C  1.0000  0.67286  0.93948  0.13593  0.0000
C39  C  1.0000  0.80525  0.00575  0.13600  0.0000
C40  C  1.0000  0.87156  0.93797  0.13672  0.0000
N1  N  1.0000  0.58850  0.38837  0.14012  0.0000
N2  N  1.0000  0.79740  0.60619  0.14603  0.0000
N3  N  1.0000  0.67367  0.74321  0.13839  0.0000
N4  N  1.0000  0.40296  0.39396  0.14056  0.0000
N5  N  1.0000  0.26316  0.52893  0.14574  0.0000
N6  N  1.0000  0.48145  0.73870  0.14006  0.0000
Cd1  Cd  1.0000  0.44241  0.58985  0.28132  0.0000
Hf1  Hf  1.0000  0.58560  0.55324  0.15887  0.0000
