data_CNCdHg
_audit_creation_method           'pos2cif.pl'
_cell_length_a               12.3170003891
_cell_length_b               12.3170003891315
_cell_length_c               20
_cell_angle_alpha            90
_cell_angle_beta             90
_cell_angle_gamma            120.010002136348
_symmetry_space_group_H-M        'P1'
_symmetry_Int_Tables_number      '1'
_symmetry_cell_setting           'triclinic'
loop_
_symmetry_equiv_pos_as_xyz
x,y,z

loop_
_atom_site_label
_atom_site_type_symbol
_atom_site_occupancy
_atom_site_fract_x
_atom_site_fract_y
_atom_site_fract_z
_atom_site_U_iso_or_equiv
C1  C  1.0000  -0.00125  0.20131  0.13561  0.0000
C2  C  1.0000  0.06348  0.13221  0.13498  0.0000
C3  C  1.0000  0.19607  0.19637  0.13622  0.0000
C4  C  1.0000  0.26197  0.12780  0.13579  0.0000
C5  C  1.0000  0.39381  0.19239  0.13636  0.0000
C6  C  1.0000  0.46356  0.13005  0.13615  0.0000
C7  C  1.0000  0.59661  0.20227  0.13699  0.0000
C8  C  1.0000  0.66577  0.13837  0.13557  0.0000
C9  C  1.0000  0.79860  0.20491  0.13604  0.0000
C10  C  1.0000  0.86675  0.13857  0.13468  0.0000
C11  C  1.0000  0.99673  0.40100  0.14059  0.0000
C12  C  1.0000  0.06382  0.33327  0.13880  0.0000
C13  C  1.0000  0.19748  0.39991  0.14165  0.0000
C14  C  1.0000  0.26432  0.32816  0.14012  0.0000
C15  C  1.0000  0.45990  0.32435  0.14031  0.0000
C16  C  1.0000  0.65607  0.33580  0.14058  0.0000
C17  C  1.0000  0.79283  0.40498  0.14178  0.0000
C18  C  1.0000  0.86158  0.33820  0.13932  0.0000
C19  C  1.0000  -0.00022  0.60105  0.14321  0.0000
C20  C  1.0000  0.06624  0.53316  0.14308  0.0000
C21  C  1.0000  0.20162  0.59356  0.14472  0.0000
C22  C  1.0000  0.86445  0.54064  0.14374  0.0000
C23  C  1.0000  0.00011  0.79998  0.14030  0.0000
C24  C  1.0000  0.06821  0.73317  0.14200  0.0000
C25  C  1.0000  0.20326  0.79629  0.14144  0.0000
C26  C  1.0000  0.27236  0.72955  0.14389  0.0000
C27  C  1.0000  0.40821  0.80049  0.14295  0.0000
C28  C  1.0000  0.60850  0.81412  0.14115  0.0000
C29  C  1.0000  0.79694  0.80231  0.14099  0.0000
C30  C  1.0000  0.86551  0.73171  0.14242  0.0000
C31  C  1.0000  -0.00087  -0.00035  0.13552  0.0000
C32  C  1.0000  0.06523  0.93192  0.13723  0.0000
C33  C  1.0000  0.19773  -0.00446  0.13663  0.0000
C34  C  1.0000  0.26612  0.92950  0.13833  0.0000
C35  C  1.0000  0.39895  -0.00281  0.13703  0.0000
C36  C  1.0000  0.46827  0.93371  0.13817  0.0000
C37  C  1.0000  0.60135  0.00587  0.13575  0.0000
C38  C  1.0000  0.67188  0.94426  0.13560  0.0000
C39  C  1.0000  0.80294  0.00635  0.13464  0.0000
C40  C  1.0000  0.86633  0.93512  0.13644  0.0000
N1  N  1.0000  0.58514  0.39301  0.14342  0.0000
N2  N  1.0000  0.80307  0.60631  0.14502  0.0000
N3  N  1.0000  0.66957  0.74698  0.14397  0.0000
N4  N  1.0000  0.39159  0.38503  0.14297  0.0000
N5  N  1.0000  0.26169  0.52593  0.14553  0.0000
N6  N  1.0000  0.48217  0.74662  0.14640  0.0000
Cd1  Cd  1.0000  0.49457  0.57351  0.16123  0.0000
Hg1  Hg  1.0000  0.63801  0.54870  0.28665  0.0000
