data_CNCdIr
_audit_creation_method           'pos2cif.pl'
_cell_length_a               12.3170003891
_cell_length_b               12.3170003891315
_cell_length_c               20
_cell_angle_alpha            90
_cell_angle_beta             90
_cell_angle_gamma            120.010002136348
_symmetry_space_group_H-M        'P1'
_symmetry_Int_Tables_number      '1'
_symmetry_cell_setting           'triclinic'
loop_
_symmetry_equiv_pos_as_xyz
x,y,z

loop_
_atom_site_label
_atom_site_type_symbol
_atom_site_occupancy
_atom_site_fract_x
_atom_site_fract_y
_atom_site_fract_z
_atom_site_U_iso_or_equiv
C1  C  1.0000  0.00144  0.20287  0.13539  0.0000
C2  C  1.0000  0.06850  0.13630  0.13543  0.0000
C3  C  1.0000  0.20176  0.20121  0.13660  0.0000
C4  C  1.0000  0.26337  0.12845  0.13646  0.0000
C5  C  1.0000  0.39456  0.19032  0.13721  0.0000
C6  C  1.0000  0.46460  0.12750  0.13758  0.0000
C7  C  1.0000  0.59744  0.19799  0.13860  0.0000
C8  C  1.0000  0.66696  0.13454  0.13673  0.0000
C9  C  1.0000  0.80010  0.20410  0.13695  0.0000
C10  C  1.0000  0.86859  0.13851  0.13458  0.0000
C11  C  1.0000  -0.00238  0.40109  0.14296  0.0000
C12  C  1.0000  0.06657  0.33469  0.13972  0.0000
C13  C  1.0000  0.20042  0.40139  0.14459  0.0000
C14  C  1.0000  0.27200  0.33519  0.13986  0.0000
C15  C  1.0000  0.45685  0.31960  0.14057  0.0000
C16  C  1.0000  0.65857  0.33082  0.14279  0.0000
C17  C  1.0000  0.79340  0.40415  0.14416  0.0000
C18  C  1.0000  0.86336  0.33756  0.14117  0.0000
C19  C  1.0000  -0.00303  0.60109  0.14644  0.0000
C20  C  1.0000  0.06435  0.53338  0.14693  0.0000
C21  C  1.0000  0.19977  0.59440  0.15202  0.0000
C22  C  1.0000  0.86098  0.53926  0.14624  0.0000
C23  C  1.0000  0.00248  0.80216  0.14183  0.0000
C24  C  1.0000  0.06860  0.73369  0.14534  0.0000
C25  C  1.0000  0.20321  0.79617  0.14568  0.0000
C26  C  1.0000  0.27235  0.72921  0.14988  0.0000
C27  C  1.0000  0.40892  0.79818  0.14670  0.0000
C28  C  1.0000  0.60767  0.80580  0.14147  0.0000
C29  C  1.0000  0.80329  0.80737  0.13982  0.0000
C30  C  1.0000  0.87034  0.73966  0.14220  0.0000
C31  C  1.0000  0.00344  0.00337  0.13606  0.0000
C32  C  1.0000  0.06775  0.93425  0.13859  0.0000
C33  C  1.0000  0.19961  0.99648  0.13824  0.0000
C34  C  1.0000  0.26703  0.92922  0.14089  0.0000
C35  C  1.0000  0.39996  0.99517  0.13897  0.0000
C36  C  1.0000  0.46918  0.93099  0.13990  0.0000
C37  C  1.0000  0.60237  0.00130  0.13669  0.0000
C38  C  1.0000  0.67220  0.93810  0.13575  0.0000
C39  C  1.0000  0.80436  0.00608  0.13419  0.0000
C40  C  1.0000  0.87053  0.93888  0.13606  0.0000
N1  N  1.0000  0.58443  0.38459  0.14600  0.0000
N2  N  1.0000  0.80116  0.61114  0.14588  0.0000
N3  N  1.0000  0.67314  0.74049  0.14265  0.0000
N4  N  1.0000  0.40274  0.39347  0.14132  0.0000
N5  N  1.0000  0.26038  0.52682  0.15612  0.0000
N6  N  1.0000  0.48149  0.74183  0.15017  0.0000
Cd1  Cd  1.0000  0.44219  0.57751  0.21909  0.0000
Ir1  Ir  1.0000  0.62007  0.55483  0.14948  0.0000
