data_CNCdMn
_audit_creation_method           'pos2cif.pl'
_cell_length_a               12.3170003891
_cell_length_b               12.3170003891315
_cell_length_c               20
_cell_angle_alpha            90
_cell_angle_beta             90
_cell_angle_gamma            120.010002136348
_symmetry_space_group_H-M        'P1'
_symmetry_Int_Tables_number      '1'
_symmetry_cell_setting           'triclinic'
loop_
_symmetry_equiv_pos_as_xyz
x,y,z

loop_
_atom_site_label
_atom_site_type_symbol
_atom_site_occupancy
_atom_site_fract_x
_atom_site_fract_y
_atom_site_fract_z
_atom_site_U_iso_or_equiv
C1  C  1.0000  0.00147  0.20189  0.13850  0.0000
C2  C  1.0000  0.06814  0.13478  0.13824  0.0000
C3  C  1.0000  0.20160  0.20042  0.13857  0.0000
C4  C  1.0000  0.26434  0.12867  0.13798  0.0000
C5  C  1.0000  0.39560  0.19133  0.13791  0.0000
C6  C  1.0000  0.46542  0.12867  0.13807  0.0000
C7  C  1.0000  0.59858  0.20013  0.13872  0.0000
C8  C  1.0000  0.66755  0.13593  0.13821  0.0000
C9  C  1.0000  0.80041  0.20380  0.13872  0.0000
C10  C  1.0000  0.86866  0.13757  0.13804  0.0000
C11  C  1.0000  -0.00155  0.40063  0.14124  0.0000
C12  C  1.0000  0.06686  0.33404  0.14003  0.0000
C13  C  1.0000  0.20182  0.40294  0.14166  0.0000
C14  C  1.0000  0.27235  0.33416  0.14013  0.0000
C15  C  1.0000  0.45936  0.32238  0.13935  0.0000
C16  C  1.0000  0.65913  0.33370  0.14065  0.0000
C17  C  1.0000  0.79452  0.40415  0.14185  0.0000
C18  C  1.0000  0.86353  0.33720  0.14058  0.0000
C19  C  1.0000  -0.00041  0.60070  0.14264  0.0000
C20  C  1.0000  0.06615  0.53283  0.14249  0.0000
C21  C  1.0000  0.20138  0.59350  0.14373  0.0000
C22  C  1.0000  0.86415  0.53987  0.14315  0.0000
C23  C  1.0000  0.00245  0.80070  0.14074  0.0000
C24  C  1.0000  0.06948  0.73302  0.14186  0.0000
C25  C  1.0000  0.20465  0.79604  0.14135  0.0000
C26  C  1.0000  0.27319  0.72904  0.14272  0.0000
C27  C  1.0000  0.41006  0.79785  0.14133  0.0000
C28  C  1.0000  0.60551  0.80620  0.14014  0.0000
C29  C  1.0000  0.80092  0.80406  0.14061  0.0000
C30  C  1.0000  0.86872  0.73426  0.14189  0.0000
C31  C  1.0000  0.00298  0.00171  0.13833  0.0000
C32  C  1.0000  0.06792  0.93299  0.13904  0.0000
C33  C  1.0000  0.20012  0.99615  0.13854  0.0000
C34  C  1.0000  0.26799  0.92956  0.13934  0.0000
C35  C  1.0000  0.40088  -0.00399  0.13855  0.0000
C36  C  1.0000  0.46978  0.93153  0.13898  0.0000
C37  C  1.0000  0.60287  0.00266  0.13806  0.0000
C38  C  1.0000  0.67203  0.93916  0.13808  0.0000
C39  C  1.0000  0.80406  0.00502  0.13786  0.0000
C40  C  1.0000  0.86971  0.93640  0.13863  0.0000
N1  N  1.0000  0.58676  0.38987  0.14148  0.0000
N2  N  1.0000  0.80323  0.60733  0.14410  0.0000
N3  N  1.0000  0.67182  0.74193  0.14171  0.0000
N4  N  1.0000  0.40126  0.39262  0.14054  0.0000
N5  N  1.0000  0.26312  0.52819  0.14508  0.0000
N6  N  1.0000  0.48004  0.73950  0.14264  0.0000
Cd1  Cd  1.0000  0.44881  0.58262  0.26774  0.0000
Mn1  Mn  1.0000  0.58960  0.55746  0.15212  0.0000
