data_CNCdMo
_audit_creation_method           'pos2cif.pl'
_cell_length_a               12.3170003891
_cell_length_b               12.3170003891315
_cell_length_c               20
_cell_angle_alpha            90
_cell_angle_beta             90
_cell_angle_gamma            120.010002136348
_symmetry_space_group_H-M        'P1'
_symmetry_Int_Tables_number      '1'
_symmetry_cell_setting           'triclinic'
loop_
_symmetry_equiv_pos_as_xyz
x,y,z

loop_
_atom_site_label
_atom_site_type_symbol
_atom_site_occupancy
_atom_site_fract_x
_atom_site_fract_y
_atom_site_fract_z
_atom_site_U_iso_or_equiv
C1  C  1.0000  0.00267  0.20268  0.13572  0.0000
C2  C  1.0000  0.06943  0.13601  0.13635  0.0000
C3  C  1.0000  0.20289  0.20180  0.13687  0.0000
C4  C  1.0000  0.26428  0.12881  0.13567  0.0000
C5  C  1.0000  0.39556  0.19068  0.13322  0.0000
C6  C  1.0000  0.46546  0.12800  0.13260  0.0000
C7  C  1.0000  0.59901  0.19823  0.13234  0.0000
C8  C  1.0000  0.66815  0.13455  0.13265  0.0000
C9  C  1.0000  0.80120  0.20355  0.13428  0.0000
C10  C  1.0000  0.86959  0.13773  0.13407  0.0000
C11  C  1.0000  -0.00105  0.40082  0.14198  0.0000
C12  C  1.0000  0.06825  0.33474  0.13961  0.0000
C13  C  1.0000  0.20244  0.40251  0.14471  0.0000
C14  C  1.0000  0.27359  0.33596  0.13980  0.0000
C15  C  1.0000  0.45897  0.32086  0.13415  0.0000
C16  C  1.0000  0.66095  0.33064  0.13569  0.0000
C17  C  1.0000  0.79507  0.40342  0.14096  0.0000
C18  C  1.0000  0.86487  0.33688  0.13872  0.0000
C19  C  1.0000  -0.00274  0.60040  0.14678  0.0000
C20  C  1.0000  0.06498  0.53310  0.14619  0.0000
C21  C  1.0000  0.20020  0.59457  0.15105  0.0000
C22  C  1.0000  0.86183  0.53834  0.14682  0.0000
C23  C  1.0000  0.00141  0.80103  0.14412  0.0000
C24  C  1.0000  0.06837  0.73342  0.14635  0.0000
C25  C  1.0000  0.20299  0.79636  0.14545  0.0000
C26  C  1.0000  0.27221  0.72973  0.14918  0.0000
C27  C  1.0000  0.40891  0.79922  0.14606  0.0000
C28  C  1.0000  0.60640  0.80677  0.14453  0.0000
C29  C  1.0000  0.80279  0.80599  0.14506  0.0000
C30  C  1.0000  0.86839  0.73697  0.14672  0.0000
C31  C  1.0000  0.00359  0.00269  0.13797  0.0000
C32  C  1.0000  0.06746  0.93335  0.14029  0.0000
C33  C  1.0000  0.19972  0.99647  0.13828  0.0000
C34  C  1.0000  0.26731  0.92966  0.13986  0.0000
C35  C  1.0000  0.40034  0.99579  0.13590  0.0000
C36  C  1.0000  0.46948  0.93153  0.13752  0.0000
C37  C  1.0000  0.60276  0.00143  0.13426  0.0000
C38  C  1.0000  0.67230  0.93827  0.13599  0.0000
C39  C  1.0000  0.80482  0.00540  0.13520  0.0000
C40  C  1.0000  0.87063  0.93773  0.13901  0.0000
N1  N  1.0000  0.58791  0.38590  0.13637  0.0000
N2  N  1.0000  0.79929  0.60718  0.15098  0.0000
N3  N  1.0000  0.67196  0.74153  0.14997  0.0000
N4  N  1.0000  0.40499  0.39444  0.13814  0.0000
N5  N  1.0000  0.26166  0.52823  0.15538  0.0000
N6  N  1.0000  0.48076  0.74279  0.15207  0.0000
Cd1  Cd  1.0000  0.43116  0.58469  0.23601  0.0000
Mo1  Mo  1.0000  0.60381  0.55031  0.16106  0.0000
