data_CNCdNb
_audit_creation_method           'pos2cif.pl'
_cell_length_a               12.3170003891
_cell_length_b               12.3170003891315
_cell_length_c               20
_cell_angle_alpha            90
_cell_angle_beta             90
_cell_angle_gamma            120.010002136348
_symmetry_space_group_H-M        'P1'
_symmetry_Int_Tables_number      '1'
_symmetry_cell_setting           'triclinic'
loop_
_symmetry_equiv_pos_as_xyz
x,y,z

loop_
_atom_site_label
_atom_site_type_symbol
_atom_site_occupancy
_atom_site_fract_x
_atom_site_fract_y
_atom_site_fract_z
_atom_site_U_iso_or_equiv
C1  C  1.0000  0.00238  0.20324  0.13843  0.0000
C2  C  1.0000  0.06925  0.13635  0.13825  0.0000
C3  C  1.0000  0.20230  0.20135  0.13707  0.0000
C4  C  1.0000  0.26430  0.12873  0.13712  0.0000
C5  C  1.0000  0.39578  0.19076  0.13575  0.0000
C6  C  1.0000  0.46547  0.12776  0.13647  0.0000
C7  C  1.0000  0.59857  0.19948  0.13636  0.0000
C8  C  1.0000  0.66780  0.13579  0.13786  0.0000
C9  C  1.0000  0.80072  0.20447  0.13827  0.0000
C10  C  1.0000  0.86949  0.13878  0.13857  0.0000
C11  C  1.0000  -0.00163  0.40137  0.14023  0.0000
C12  C  1.0000  0.06728  0.33508  0.13907  0.0000
C13  C  1.0000  0.20202  0.40376  0.13891  0.0000
C14  C  1.0000  0.27148  0.33489  0.13666  0.0000
C15  C  1.0000  0.45902  0.32076  0.13390  0.0000
C16  C  1.0000  0.66006  0.33239  0.13646  0.0000
C17  C  1.0000  0.79443  0.40453  0.13987  0.0000
C18  C  1.0000  0.86388  0.33776  0.13938  0.0000
C19  C  1.0000  -0.00331  0.60065  0.14282  0.0000
C20  C  1.0000  0.06465  0.53324  0.14167  0.0000
C21  C  1.0000  0.20046  0.59374  0.14226  0.0000
C22  C  1.0000  0.86096  0.53944  0.14312  0.0000
C23  C  1.0000  0.00182  0.80095  0.14249  0.0000
C24  C  1.0000  0.06871  0.73330  0.14298  0.0000
C25  C  1.0000  0.20388  0.79582  0.14251  0.0000
C26  C  1.0000  0.27303  0.72880  0.14342  0.0000
C27  C  1.0000  0.41006  0.79656  0.14347  0.0000
C28  C  1.0000  0.60733  0.80827  0.14341  0.0000
C29  C  1.0000  0.80499  0.80775  0.14361  0.0000
C30  C  1.0000  0.86830  0.73649  0.14425  0.0000
C31  C  1.0000  0.00427  0.00347  0.13975  0.0000
C32  C  1.0000  0.06781  0.93350  0.14049  0.0000
C33  C  1.0000  0.20018  0.99642  0.13919  0.0000
C34  C  1.0000  0.26784  0.92934  0.14030  0.0000
C35  C  1.0000  0.40091  0.99525  0.13888  0.0000
C36  C  1.0000  0.47004  0.93057  0.14049  0.0000
C37  C  1.0000  0.60312  0.00259  0.13944  0.0000
C38  C  1.0000  0.67322  0.94025  0.14043  0.0000
C39  C  1.0000  0.80545  0.00680  0.13971  0.0000
C40  C  1.0000  0.87176  0.93928  0.14099  0.0000
N1  N  1.0000  0.58800  0.38926  0.13427  0.0000
N2  N  1.0000  0.79709  0.60738  0.14606  0.0000
N3  N  1.0000  0.67534  0.74487  0.14518  0.0000
N4  N  1.0000  0.40151  0.39296  0.13461  0.0000
N5  N  1.0000  0.26296  0.52917  0.14110  0.0000
N6  N  1.0000  0.48202  0.73898  0.14595  0.0000
Cd1  Cd  1.0000  0.44850  0.56627  0.28017  0.0000
Nb1  Nb  1.0000  0.58354  0.55256  0.15031  0.0000
