data_CNCdNi
_audit_creation_method           'pos2cif.pl'
_cell_length_a               12.3170003891
_cell_length_b               12.3170003891315
_cell_length_c               20
_cell_angle_alpha            90
_cell_angle_beta             90
_cell_angle_gamma            120.010002136348
_symmetry_space_group_H-M        'P1'
_symmetry_Int_Tables_number      '1'
_symmetry_cell_setting           'triclinic'
loop_
_symmetry_equiv_pos_as_xyz
x,y,z

loop_
_atom_site_label
_atom_site_type_symbol
_atom_site_occupancy
_atom_site_fract_x
_atom_site_fract_y
_atom_site_fract_z
_atom_site_U_iso_or_equiv
C1  C  1.0000  0.99902  0.20076  0.13529  0.0000
C2  C  1.0000  0.06561  0.13351  0.13542  0.0000
C3  C  1.0000  0.19831  0.19825  0.13708  0.0000
C4  C  1.0000  0.26412  0.12968  0.13803  0.0000
C5  C  1.0000  0.39599  0.19488  0.14009  0.0000
C6  C  1.0000  0.46486  0.13067  0.14107  0.0000
C7  C  1.0000  0.59766  0.20170  0.14171  0.0000
C8  C  1.0000  0.66609  0.13597  0.13880  0.0000
C9  C  1.0000  0.79880  0.20361  0.13782  0.0000
C10  C  1.0000  0.86659  0.13688  0.13523  0.0000
C11  C  1.0000  0.99634  0.40028  0.14120  0.0000
C12  C  1.0000  0.06373  0.33277  0.13864  0.0000
C13  C  1.0000  0.19699  0.39901  0.14325  0.0000
C14  C  1.0000  0.26653  0.33065  0.14003  0.0000
C15  C  1.0000  0.45832  0.32676  0.14403  0.0000
C16  C  1.0000  0.65802  0.33585  0.14528  0.0000
C17  C  1.0000  0.79339  0.40494  0.14289  0.0000
C18  C  1.0000  0.86195  0.33714  0.14039  0.0000
C19  C  1.0000  -0.00057  0.60124  0.14343  0.0000
C20  C  1.0000  0.06529  0.53277  0.14460  0.0000
C21  C  1.0000  0.20017  0.59340  0.15006  0.0000
C22  C  1.0000  0.86415  0.54002  0.14189  0.0000
C23  C  1.0000  0.00367  0.80188  0.14042  0.0000
C24  C  1.0000  0.07011  0.73378  0.14322  0.0000
C25  C  1.0000  0.20454  0.79661  0.14501  0.0000
C26  C  1.0000  0.27293  0.72895  0.14901  0.0000
C27  C  1.0000  0.40932  0.79870  0.14709  0.0000
C28  C  1.0000  0.60733  0.80426  0.14255  0.0000
C29  C  1.0000  0.80221  0.80442  0.13938  0.0000
C30  C  1.0000  0.87101  0.73725  0.13911  0.0000
C31  C  1.0000  0.00179  0.00111  0.13593  0.0000
C32  C  1.0000  0.06826  0.93392  0.13866  0.0000
C33  C  1.0000  0.20046  0.99723  0.13937  0.0000
C34  C  1.0000  0.26796  0.93020  0.14211  0.0000
C35  C  1.0000  0.40073  0.99743  0.14156  0.0000
C36  C  1.0000  0.46928  0.93216  0.14188  0.0000
C37  C  1.0000  0.60211  0.00205  0.13857  0.0000
C38  C  1.0000  0.67118  0.93722  0.13683  0.0000
C39  C  1.0000  0.80299  0.00433  0.13500  0.0000
C40  C  1.0000  0.86898  0.93636  0.13594  0.0000
N1  N  1.0000  0.58630  0.39417  0.15086  0.0000
N2  N  1.0000  0.80452  0.60930  0.13867  0.0000
N3  N  1.0000  0.67289  0.73801  0.14528  0.0000
N4  N  1.0000  0.39513  0.39176  0.14265  0.0000
N5  N  1.0000  0.25916  0.52448  0.15372  0.0000
N6  N  1.0000  0.48126  0.74154  0.15007  0.0000
Cd1  Cd  1.0000  0.44673  0.56871  0.20977  0.0000
Ni1  Ni  1.0000  0.63478  0.56457  0.15308  0.0000
