data_CNCdOs
_audit_creation_method           'pos2cif.pl'
_cell_length_a               12.3170003891
_cell_length_b               12.3170003891315
_cell_length_c               20
_cell_angle_alpha            90
_cell_angle_beta             90
_cell_angle_gamma            120.010002136348
_symmetry_space_group_H-M        'P1'
_symmetry_Int_Tables_number      '1'
_symmetry_cell_setting           'triclinic'
loop_
_symmetry_equiv_pos_as_xyz
x,y,z

loop_
_atom_site_label
_atom_site_type_symbol
_atom_site_occupancy
_atom_site_fract_x
_atom_site_fract_y
_atom_site_fract_z
_atom_site_U_iso_or_equiv
C1  C  1.0000  0.00167  0.20305  0.13418  0.0000
C2  C  1.0000  0.06840  0.13605  0.13361  0.0000
C3  C  1.0000  0.20131  0.20051  0.13464  0.0000
C4  C  1.0000  0.26305  0.12809  0.13344  0.0000
C5  C  1.0000  0.39418  0.18987  0.13366  0.0000
C6  C  1.0000  0.46461  0.12740  0.13423  0.0000
C7  C  1.0000  0.59781  0.19848  0.13594  0.0000
C8  C  1.0000  0.66717  0.13468  0.13471  0.0000
C9  C  1.0000  0.80020  0.20431  0.13577  0.0000
C10  C  1.0000  0.86879  0.13848  0.13333  0.0000
C11  C  1.0000  -0.00221  0.40125  0.14344  0.0000
C12  C  1.0000  0.06690  0.33493  0.13939  0.0000
C13  C  1.0000  0.20063  0.40179  0.14508  0.0000
C14  C  1.0000  0.27180  0.33454  0.13946  0.0000
C15  C  1.0000  0.45546  0.31872  0.13841  0.0000
C16  C  1.0000  0.65895  0.33079  0.14190  0.0000
C17  C  1.0000  0.79348  0.40432  0.14526  0.0000
C18  C  1.0000  0.86342  0.33762  0.14119  0.0000
C19  C  1.0000  -0.00313  0.60109  0.14845  0.0000
C20  C  1.0000  0.06452  0.53331  0.14810  0.0000
C21  C  1.0000  0.19989  0.59457  0.15276  0.0000
C22  C  1.0000  0.86155  0.53947  0.14953  0.0000
C23  C  1.0000  0.00270  0.80216  0.14231  0.0000
C24  C  1.0000  0.06889  0.73377  0.14629  0.0000
C25  C  1.0000  0.20332  0.79613  0.14530  0.0000
C26  C  1.0000  0.27249  0.72928  0.15002  0.0000
C27  C  1.0000  0.40919  0.79856  0.14633  0.0000
C28  C  1.0000  0.60744  0.80589  0.14262  0.0000
C29  C  1.0000  0.80412  0.80779  0.14175  0.0000
C30  C  1.0000  0.87118  0.74039  0.14492  0.0000
C31  C  1.0000  0.00336  0.00317  0.13452  0.0000
C32  C  1.0000  0.06781  0.93415  0.13707  0.0000
C33  C  1.0000  0.19941  0.99599  0.13567  0.0000
C34  C  1.0000  0.26708  0.92904  0.13881  0.0000
C35  C  1.0000  0.40018  0.99537  0.13633  0.0000
C36  C  1.0000  0.46947  0.93110  0.13821  0.0000
C37  C  1.0000  0.60251  0.00125  0.13510  0.0000
C38  C  1.0000  0.67227  0.93778  0.13523  0.0000
C39  C  1.0000  0.80449  0.00611  0.13337  0.0000
C40  C  1.0000  0.87058  0.93881  0.13576  0.0000
N1  N  1.0000  0.58422  0.38527  0.14658  0.0000
N2  N  1.0000  0.80075  0.61157  0.15189  0.0000
N3  N  1.0000  0.67319  0.73923  0.14648  0.0000
N4  N  1.0000  0.40126  0.39162  0.14087  0.0000
N5  N  1.0000  0.26047  0.52675  0.15720  0.0000
N6  N  1.0000  0.48173  0.74260  0.15104  0.0000
Cd1  Cd  1.0000  0.44143  0.58002  0.22387  0.0000
Os1  Os  1.0000  0.61899  0.55405  0.15792  0.0000
