data_CNCdPd
_audit_creation_method           'pos2cif.pl'
_cell_length_a               12.3170003891
_cell_length_b               12.3170003891315
_cell_length_c               20
_cell_angle_alpha            90
_cell_angle_beta             90
_cell_angle_gamma            120.010002136348
_symmetry_space_group_H-M        'P1'
_symmetry_Int_Tables_number      '1'
_symmetry_cell_setting           'triclinic'
loop_
_symmetry_equiv_pos_as_xyz
x,y,z

loop_
_atom_site_label
_atom_site_type_symbol
_atom_site_occupancy
_atom_site_fract_x
_atom_site_fract_y
_atom_site_fract_z
_atom_site_U_iso_or_equiv
C1  C  1.0000  0.00031  0.20177  0.13376  0.0000
C2  C  1.0000  0.06703  0.13467  0.13399  0.0000
C3  C  1.0000  0.19988  0.19932  0.13519  0.0000
C4  C  1.0000  0.26371  0.12869  0.13596  0.0000
C5  C  1.0000  0.39499  0.19208  0.13751  0.0000
C6  C  1.0000  0.46466  0.12893  0.13900  0.0000
C7  C  1.0000  0.59757  0.19977  0.13981  0.0000
C8  C  1.0000  0.66671  0.13553  0.13738  0.0000
C9  C  1.0000  0.79959  0.20397  0.13663  0.0000
C10  C  1.0000  0.86771  0.13776  0.13429  0.0000
C11  C  1.0000  -0.00271  0.40062  0.14021  0.0000
C12  C  1.0000  0.06538  0.33380  0.13678  0.0000
C13  C  1.0000  0.19923  0.40057  0.14051  0.0000
C14  C  1.0000  0.26929  0.33233  0.13709  0.0000
C15  C  1.0000  0.45691  0.32283  0.14120  0.0000
C16  C  1.0000  0.65804  0.33319  0.14424  0.0000
C17  C  1.0000  0.79352  0.40437  0.14262  0.0000
C18  C  1.0000  0.86276  0.33734  0.13957  0.0000
C19  C  1.0000  -0.00080  0.60109  0.14383  0.0000
C20  C  1.0000  0.06560  0.53295  0.14421  0.0000
C21  C  1.0000  0.20052  0.59354  0.14929  0.0000
C22  C  1.0000  0.86375  0.53967  0.14252  0.0000
C23  C  1.0000  0.00356  0.80213  0.14102  0.0000
C24  C  1.0000  0.06971  0.73359  0.14353  0.0000
C25  C  1.0000  0.20432  0.79623  0.14493  0.0000
C26  C  1.0000  0.27295  0.72897  0.14917  0.0000
C27  C  1.0000  0.40957  0.79862  0.14825  0.0000
C28  C  1.0000  0.60719  0.80631  0.14648  0.0000
C29  C  1.0000  0.80322  0.80662  0.14218  0.0000
C30  C  1.0000  0.87097  0.73824  0.14083  0.0000
C31  C  1.0000  0.00284  0.00223  0.13526  0.0000
C32  C  1.0000  0.06830  0.93401  0.13830  0.0000
C33  C  1.0000  0.20019  0.99656  0.13823  0.0000
C34  C  1.0000  0.26769  0.92958  0.14132  0.0000
C35  C  1.0000  0.40044  0.99622  0.14030  0.0000
C36  C  1.0000  0.46940  0.93169  0.14168  0.0000
C37  C  1.0000  0.60232  0.00214  0.13834  0.0000
C38  C  1.0000  0.67175  0.93838  0.13829  0.0000
C39  C  1.0000  0.80370  0.00534  0.13544  0.0000
C40  C  1.0000  0.87019  0.93803  0.13659  0.0000
N1  N  1.0000  0.58370  0.38679  0.15030  0.0000
N2  N  1.0000  0.80542  0.61021  0.13975  0.0000
N3  N  1.0000  0.67479  0.74361  0.15101  0.0000
N4  N  1.0000  0.39825  0.39231  0.13858  0.0000
N5  N  1.0000  0.26094  0.52574  0.15147  0.0000
N6  N  1.0000  0.48126  0.74182  0.15370  0.0000
Cd1  Cd  1.0000  0.43641  0.56929  0.22479  0.0000
Pd1  Pd  1.0000  0.62431  0.56170  0.15661  0.0000
