data_CNCdPt
_audit_creation_method           'pos2cif.pl'
_cell_length_a               12.3170003891
_cell_length_b               12.3170003891315
_cell_length_c               20
_cell_angle_alpha            90
_cell_angle_beta             90
_cell_angle_gamma            120.010002136348
_symmetry_space_group_H-M        'P1'
_symmetry_Int_Tables_number      '1'
_symmetry_cell_setting           'triclinic'
loop_
_symmetry_equiv_pos_as_xyz
x,y,z

loop_
_atom_site_label
_atom_site_type_symbol
_atom_site_occupancy
_atom_site_fract_x
_atom_site_fract_y
_atom_site_fract_z
_atom_site_U_iso_or_equiv
C1  C  1.0000  0.00087  0.20244  0.13585  0.0000
C2  C  1.0000  0.06805  0.13588  0.13613  0.0000
C3  C  1.0000  0.20124  0.20094  0.13660  0.0000
C4  C  1.0000  0.26350  0.12863  0.13710  0.0000
C5  C  1.0000  0.39453  0.19077  0.13783  0.0000
C6  C  1.0000  0.46447  0.12795  0.13916  0.0000
C7  C  1.0000  0.59736  0.19873  0.13970  0.0000
C8  C  1.0000  0.66669  0.13487  0.13830  0.0000
C9  C  1.0000  0.79968  0.20394  0.13795  0.0000
C10  C  1.0000  0.86806  0.13808  0.13616  0.0000
C11  C  1.0000  0.99733  0.40080  0.14100  0.0000
C12  C  1.0000  0.06607  0.33447  0.13807  0.0000
C13  C  1.0000  0.20050  0.40211  0.14069  0.0000
C14  C  1.0000  0.27127  0.33464  0.13723  0.0000
C15  C  1.0000  0.45645  0.32084  0.13925  0.0000
C16  C  1.0000  0.65823  0.33202  0.14270  0.0000
C17  C  1.0000  0.79323  0.40421  0.14260  0.0000
C18  C  1.0000  0.86286  0.33730  0.14040  0.0000
C19  C  1.0000  -0.00225  0.60104  0.14386  0.0000
C20  C  1.0000  0.06463  0.53307  0.14414  0.0000
C21  C  1.0000  0.19995  0.59368  0.14827  0.0000
C22  C  1.0000  0.86201  0.53930  0.14311  0.0000
C23  C  1.0000  0.00327  0.80236  0.14128  0.0000
C24  C  1.0000  0.06905  0.73358  0.14350  0.0000
C25  C  1.0000  0.20375  0.79604  0.14446  0.0000
C26  C  1.0000  0.27246  0.72887  0.14782  0.0000
C27  C  1.0000  0.40923  0.79764  0.14654  0.0000
C28  C  1.0000  0.60615  0.80504  0.14411  0.0000
C29  C  1.0000  0.80350  0.80730  0.14131  0.0000
C30  C  1.0000  0.87094  0.73955  0.14104  0.0000
C31  C  1.0000  0.00336  0.00317  0.13720  0.0000
C32  C  1.0000  0.06812  0.93428  0.13928  0.0000
C33  C  1.0000  0.19995  0.99658  0.13905  0.0000
C34  C  1.0000  0.26735  0.92940  0.14135  0.0000
C35  C  1.0000  0.40014  0.99543  0.14039  0.0000
C36  C  1.0000  0.46915  0.93091  0.14135  0.0000
C37  C  1.0000  0.60221  0.00147  0.13892  0.0000
C38  C  1.0000  0.67167  0.93778  0.13872  0.0000
C39  C  1.0000  0.80385  0.00566  0.13679  0.0000
C40  C  1.0000  0.87057  0.93884  0.13789  0.0000
N1  N  1.0000  0.58357  0.38539  0.14592  0.0000
N2  N  1.0000  0.80357  0.61119  0.14136  0.0000
N3  N  1.0000  0.67404  0.74172  0.14618  0.0000
N4  N  1.0000  0.40120  0.39333  0.13666  0.0000
N5  N  1.0000  0.26168  0.52739  0.15022  0.0000
N6  N  1.0000  0.48041  0.73998  0.15051  0.0000
Cd1  Cd  1.0000  0.44078  0.57419  0.23308  0.0000
Pt1  Pt  1.0000  0.62235  0.55834  0.15089  0.0000
