data_CNCdRe
_audit_creation_method           'pos2cif.pl'
_cell_length_a               12.3170003891
_cell_length_b               12.3170003891315
_cell_length_c               20
_cell_angle_alpha            90
_cell_angle_beta             90
_cell_angle_gamma            120.010002136348
_symmetry_space_group_H-M        'P1'
_symmetry_Int_Tables_number      '1'
_symmetry_cell_setting           'triclinic'
loop_
_symmetry_equiv_pos_as_xyz
x,y,z

loop_
_atom_site_label
_atom_site_type_symbol
_atom_site_occupancy
_atom_site_fract_x
_atom_site_fract_y
_atom_site_fract_z
_atom_site_U_iso_or_equiv
C1  C  1.0000  0.00234  0.20332  0.13691  0.0000
C2  C  1.0000  0.06944  0.13692  0.13717  0.0000
C3  C  1.0000  0.20297  0.20230  0.13751  0.0000
C4  C  1.0000  0.26354  0.12828  0.13747  0.0000
C5  C  1.0000  0.39450  0.18909  0.13753  0.0000
C6  C  1.0000  0.46462  0.12659  0.13823  0.0000
C7  C  1.0000  0.59789  0.19746  0.13850  0.0000
C8  C  1.0000  0.66739  0.13440  0.13742  0.0000
C9  C  1.0000  0.80045  0.20394  0.13770  0.0000
C10  C  1.0000  0.86927  0.13860  0.13642  0.0000
C11  C  1.0000  -0.00167  0.40122  0.14168  0.0000
C12  C  1.0000  0.06780  0.33533  0.13944  0.0000
C13  C  1.0000  0.20251  0.40363  0.14271  0.0000
C14  C  1.0000  0.27381  0.33652  0.13900  0.0000
C15  C  1.0000  0.45724  0.31833  0.13862  0.0000
C16  C  1.0000  0.65945  0.32966  0.14109  0.0000
C17  C  1.0000  0.79384  0.40358  0.14231  0.0000
C18  C  1.0000  0.86380  0.33724  0.14044  0.0000
C19  C  1.0000  -0.00421  0.60047  0.14450  0.0000
C20  C  1.0000  0.06408  0.53321  0.14455  0.0000
C21  C  1.0000  0.19980  0.59420  0.14833  0.0000
C22  C  1.0000  0.86026  0.53853  0.14419  0.0000
C23  C  1.0000  0.00132  0.80134  0.14201  0.0000
C24  C  1.0000  0.06780  0.73321  0.14416  0.0000
C25  C  1.0000  0.20261  0.79560  0.14446  0.0000
C26  C  1.0000  0.27196  0.72903  0.14732  0.0000
C27  C  1.0000  0.40886  0.79750  0.14506  0.0000
C28  C  1.0000  0.60612  0.80663  0.14139  0.0000
C29  C  1.0000  0.80353  0.80779  0.14060  0.0000
C30  C  1.0000  0.86864  0.73853  0.14233  0.0000
C31  C  1.0000  0.00382  0.00377  0.13806  0.0000
C32  C  1.0000  0.06721  0.93371  0.13986  0.0000
C33  C  1.0000  0.19925  0.99604  0.13931  0.0000
C34  C  1.0000  0.26674  0.92896  0.14111  0.0000
C35  C  1.0000  0.39985  0.99467  0.13948  0.0000
C36  C  1.0000  0.46921  0.93054  0.14001  0.0000
C37  C  1.0000  0.60235  0.00135  0.13764  0.0000
C38  C  1.0000  0.67221  0.93863  0.13722  0.0000
C39  C  1.0000  0.80471  0.00642  0.13638  0.0000
C40  C  1.0000  0.87101  0.93944  0.13804  0.0000
N1  N  1.0000  0.58554  0.38397  0.14364  0.0000
N2  N  1.0000  0.79726  0.60885  0.14471  0.0000
N3  N  1.0000  0.67305  0.74199  0.14253  0.0000
N4  N  1.0000  0.40493  0.39373  0.13799  0.0000
N5  N  1.0000  0.26228  0.52895  0.15115  0.0000
N6  N  1.0000  0.48054  0.74031  0.14793  0.0000
Cd1  Cd  1.0000  0.44927  0.58409  0.24071  0.0000
Re1  Re  1.0000  0.60784  0.55325  0.14710  0.0000
