data_CNCdRh
_audit_creation_method           'pos2cif.pl'
_cell_length_a               12.3170003891
_cell_length_b               12.3170003891315
_cell_length_c               20
_cell_angle_alpha            90
_cell_angle_beta             90
_cell_angle_gamma            120.010002136348
_symmetry_space_group_H-M        'P1'
_symmetry_Int_Tables_number      '1'
_symmetry_cell_setting           'triclinic'
loop_
_symmetry_equiv_pos_as_xyz
x,y,z

loop_
_atom_site_label
_atom_site_type_symbol
_atom_site_occupancy
_atom_site_fract_x
_atom_site_fract_y
_atom_site_fract_z
_atom_site_U_iso_or_equiv
C1  C  1.0000  0.00110  0.20246  0.13605  0.0000
C2  C  1.0000  0.06808  0.13579  0.13637  0.0000
C3  C  1.0000  0.20129  0.20085  0.13760  0.0000
C4  C  1.0000  0.26359  0.12878  0.13800  0.0000
C5  C  1.0000  0.39487  0.19131  0.13869  0.0000
C6  C  1.0000  0.46469  0.12819  0.13880  0.0000
C7  C  1.0000  0.59754  0.19857  0.13931  0.0000
C8  C  1.0000  0.66692  0.13489  0.13740  0.0000
C9  C  1.0000  0.80000  0.20402  0.13736  0.0000
C10  C  1.0000  0.86834  0.13825  0.13515  0.0000
C11  C  1.0000  -0.00236  0.40094  0.14255  0.0000
C12  C  1.0000  0.06623  0.33434  0.13979  0.0000
C13  C  1.0000  0.19998  0.40105  0.14431  0.0000
C14  C  1.0000  0.27126  0.33459  0.14030  0.0000
C15  C  1.0000  0.45767  0.32135  0.14163  0.0000
C16  C  1.0000  0.65864  0.33165  0.14256  0.0000
C17  C  1.0000  0.79370  0.40421  0.14325  0.0000
C18  C  1.0000  0.86332  0.33754  0.14090  0.0000
C19  C  1.0000  -0.00235  0.60107  0.14543  0.0000
C20  C  1.0000  0.06475  0.53327  0.14623  0.0000
C21  C  1.0000  0.19996  0.59423  0.15147  0.0000
C22  C  1.0000  0.86174  0.53945  0.14471  0.0000
C23  C  1.0000  0.00239  0.80192  0.14196  0.0000
C24  C  1.0000  0.06876  0.73364  0.14500  0.0000
C25  C  1.0000  0.20340  0.79628  0.14590  0.0000
C26  C  1.0000  0.27243  0.72917  0.14967  0.0000
C27  C  1.0000  0.40893  0.79819  0.14664  0.0000
C28  C  1.0000  0.60767  0.80599  0.14082  0.0000
C29  C  1.0000  0.80240  0.80644  0.13923  0.0000
C30  C  1.0000  0.86983  0.73846  0.14157  0.0000
C31  C  1.0000  0.00310  0.00290  0.13687  0.0000
C32  C  1.0000  0.06775  0.93408  0.13954  0.0000
C33  C  1.0000  0.19974  0.99665  0.13966  0.0000
C34  C  1.0000  0.26720  0.92946  0.14198  0.0000
C35  C  1.0000  0.40009  0.99560  0.14007  0.0000
C36  C  1.0000  0.46916  0.93123  0.14049  0.0000
C37  C  1.0000  0.60232  0.00167  0.13723  0.0000
C38  C  1.0000  0.67201  0.93839  0.13576  0.0000
C39  C  1.0000  0.80411  0.00578  0.13441  0.0000
C40  C  1.0000  0.87014  0.93827  0.13619  0.0000
N1  N  1.0000  0.58509  0.38588  0.14547  0.0000
N2  N  1.0000  0.80205  0.61023  0.14394  0.0000
N3  N  1.0000  0.67258  0.74078  0.14135  0.0000
N4  N  1.0000  0.40165  0.39387  0.14233  0.0000
N5  N  1.0000  0.26047  0.52656  0.15532  0.0000
N6  N  1.0000  0.48132  0.74159  0.14956  0.0000
Cd1  Cd  1.0000  0.44319  0.57604  0.21727  0.0000
Rh1  Rh  1.0000  0.62029  0.55526  0.14584  0.0000
