data_CNCdRu
_audit_creation_method           'pos2cif.pl'
_cell_length_a               12.3170003891
_cell_length_b               12.3170003891315
_cell_length_c               20
_cell_angle_alpha            90
_cell_angle_beta             90
_cell_angle_gamma            120.010002136348
_symmetry_space_group_H-M        'P1'
_symmetry_Int_Tables_number      '1'
_symmetry_cell_setting           'triclinic'
loop_
_symmetry_equiv_pos_as_xyz
x,y,z

loop_
_atom_site_label
_atom_site_type_symbol
_atom_site_occupancy
_atom_site_fract_x
_atom_site_fract_y
_atom_site_fract_z
_atom_site_U_iso_or_equiv
C1  C  1.0000  0.00141  0.20280  0.13504  0.0000
C2  C  1.0000  0.06816  0.13587  0.13536  0.0000
C3  C  1.0000  0.20109  0.20038  0.13647  0.0000
C4  C  1.0000  0.26311  0.12813  0.13632  0.0000
C5  C  1.0000  0.39426  0.19011  0.13665  0.0000
C6  C  1.0000  0.46451  0.12756  0.13705  0.0000
C7  C  1.0000  0.59757  0.19831  0.13781  0.0000
C8  C  1.0000  0.66704  0.13488  0.13603  0.0000
C9  C  1.0000  0.80010  0.20429  0.13624  0.0000
C10  C  1.0000  0.86861  0.13857  0.13410  0.0000
C11  C  1.0000  -0.00221  0.40122  0.14265  0.0000
C12  C  1.0000  0.06657  0.33468  0.13939  0.0000
C13  C  1.0000  0.20023  0.40117  0.14471  0.0000
C14  C  1.0000  0.27119  0.33417  0.13973  0.0000
C15  C  1.0000  0.45635  0.31947  0.13991  0.0000
C16  C  1.0000  0.65864  0.33093  0.14188  0.0000
C17  C  1.0000  0.79362  0.40436  0.14352  0.0000
C18  C  1.0000  0.86341  0.33778  0.14051  0.0000
C19  C  1.0000  -0.00255  0.60114  0.14686  0.0000
C20  C  1.0000  0.06481  0.53342  0.14711  0.0000
C21  C  1.0000  0.20007  0.59439  0.15251  0.0000
C22  C  1.0000  0.86174  0.53966  0.14638  0.0000
C23  C  1.0000  0.00256  0.80211  0.14280  0.0000
C24  C  1.0000  0.06887  0.73373  0.14620  0.0000
C25  C  1.0000  0.20339  0.79615  0.14645  0.0000
C26  C  1.0000  0.27254  0.72922  0.15054  0.0000
C27  C  1.0000  0.40915  0.79856  0.14703  0.0000
C28  C  1.0000  0.60801  0.80665  0.14166  0.0000
C29  C  1.0000  0.80334  0.80749  0.14054  0.0000
C30  C  1.0000  0.87052  0.73944  0.14339  0.0000
C31  C  1.0000  0.00331  0.00312  0.13636  0.0000
C32  C  1.0000  0.06774  0.93415  0.13925  0.0000
C33  C  1.0000  0.19947  0.99620  0.13862  0.0000
C34  C  1.0000  0.26709  0.92917  0.14136  0.0000
C35  C  1.0000  0.40004  0.99534  0.13890  0.0000
C36  C  1.0000  0.46928  0.93123  0.13979  0.0000
C37  C  1.0000  0.60241  0.00168  0.13624  0.0000
C38  C  1.0000  0.67227  0.93866  0.13543  0.0000
C39  C  1.0000  0.80441  0.00621  0.13392  0.0000
C40  C  1.0000  0.87056  0.93886  0.13630  0.0000
N1  N  1.0000  0.58446  0.38507  0.14530  0.0000
N2  N  1.0000  0.80140  0.61083  0.14715  0.0000
N3  N  1.0000  0.67313  0.74124  0.14327  0.0000
N4  N  1.0000  0.40109  0.39231  0.14075  0.0000
N5  N  1.0000  0.26036  0.52640  0.15672  0.0000
N6  N  1.0000  0.48183  0.74259  0.15061  0.0000
Cd1  Cd  1.0000  0.44331  0.57721  0.21851  0.0000
Ru1  Ru  1.0000  0.61876  0.55425  0.14861  0.0000
