data_CNCdSc
_audit_creation_method           'pos2cif.pl'
_cell_length_a               12.3170003891
_cell_length_b               12.3170003891315
_cell_length_c               20
_cell_angle_alpha            90
_cell_angle_beta             90
_cell_angle_gamma            120.010002136348
_symmetry_space_group_H-M        'P1'
_symmetry_Int_Tables_number      '1'
_symmetry_cell_setting           'triclinic'
loop_
_symmetry_equiv_pos_as_xyz
x,y,z

loop_
_atom_site_label
_atom_site_type_symbol
_atom_site_occupancy
_atom_site_fract_x
_atom_site_fract_y
_atom_site_fract_z
_atom_site_U_iso_or_equiv
C1  C  1.0000  0.00275  0.20226  0.13730  0.0000
C2  C  1.0000  0.06952  0.13551  0.13754  0.0000
C3  C  1.0000  0.20284  0.20147  0.13832  0.0000
C4  C  1.0000  0.26516  0.12910  0.13761  0.0000
C5  C  1.0000  0.39663  0.19159  0.13673  0.0000
C6  C  1.0000  0.46614  0.12861  0.13617  0.0000
C7  C  1.0000  0.59955  0.19921  0.13610  0.0000
C8  C  1.0000  0.66842  0.13520  0.13571  0.0000
C9  C  1.0000  0.80133  0.20349  0.13667  0.0000
C10  C  1.0000  0.86967  0.13738  0.13596  0.0000
C11  C  1.0000  -0.00088  0.40055  0.14170  0.0000
C12  C  1.0000  0.06801  0.33423  0.14020  0.0000
C13  C  1.0000  0.20257  0.40266  0.14396  0.0000
C14  C  1.0000  0.27248  0.33503  0.14070  0.0000
C15  C  1.0000  0.46076  0.32267  0.13730  0.0000
C16  C  1.0000  0.66110  0.33196  0.13815  0.0000
C17  C  1.0000  0.79546  0.40362  0.14136  0.0000
C18  C  1.0000  0.86488  0.33678  0.13982  0.0000
C19  C  1.0000  -0.00174  0.60040  0.14426  0.0000
C20  C  1.0000  0.06563  0.53283  0.14397  0.0000
C21  C  1.0000  0.20096  0.59375  0.14723  0.0000
C22  C  1.0000  0.86269  0.53894  0.14487  0.0000
C23  C  1.0000  0.00198  0.80064  0.14217  0.0000
C24  C  1.0000  0.06910  0.73318  0.14394  0.0000
C25  C  1.0000  0.20403  0.79610  0.14334  0.0000
C26  C  1.0000  0.27301  0.72916  0.14548  0.0000
C27  C  1.0000  0.40968  0.79768  0.14233  0.0000
C28  C  1.0000  0.60631  0.80666  0.13920  0.0000
C29  C  1.0000  0.80320  0.80511  0.14038  0.0000
C30  C  1.0000  0.86832  0.73528  0.14367  0.0000
C31  C  1.0000  0.00404  0.00229  0.13799  0.0000
C32  C  1.0000  0.06811  0.93308  0.13962  0.0000
C33  C  1.0000  0.20066  0.99672  0.13885  0.0000
C34  C  1.0000  0.26819  0.92971  0.13994  0.0000
C35  C  1.0000  0.40117  -0.00412  0.13772  0.0000
C36  C  1.0000  0.47001  0.93113  0.13806  0.0000
C37  C  1.0000  0.60326  0.00200  0.13586  0.0000
C38  C  1.0000  0.67270  0.93908  0.13579  0.0000
C39  C  1.0000  0.80510  0.00524  0.13566  0.0000
C40  C  1.0000  0.87109  0.93709  0.13764  0.0000
N1  N  1.0000  0.58913  0.38876  0.13824  0.0000
N2  N  1.0000  0.79950  0.60598  0.14796  0.0000
N3  N  1.0000  0.67246  0.74210  0.14107  0.0000
N4  N  1.0000  0.40374  0.39460  0.13960  0.0000
N5  N  1.0000  0.26297  0.52856  0.15104  0.0000
N6  N  1.0000  0.48089  0.73962  0.14375  0.0000
Cd1  Cd  1.0000  0.42499  0.58576  0.25973  0.0000
Sc1  Sc  1.0000  0.58944  0.55248  0.16126  0.0000
