data_CNCdTa
_audit_creation_method           'pos2cif.pl'
_cell_length_a               12.3170003891
_cell_length_b               12.3170003891315
_cell_length_c               20
_cell_angle_alpha            90
_cell_angle_beta             90
_cell_angle_gamma            120.010002136348
_symmetry_space_group_H-M        'P1'
_symmetry_Int_Tables_number      '1'
_symmetry_cell_setting           'triclinic'
loop_
_symmetry_equiv_pos_as_xyz
x,y,z

loop_
_atom_site_label
_atom_site_type_symbol
_atom_site_occupancy
_atom_site_fract_x
_atom_site_fract_y
_atom_site_fract_z
_atom_site_U_iso_or_equiv
C1  C  1.0000  0.00283  0.20311  0.13876  0.0000
C2  C  1.0000  0.06975  0.13647  0.13909  0.0000
C3  C  1.0000  0.20303  0.20196  0.13894  0.0000
C4  C  1.0000  0.26452  0.12892  0.13868  0.0000
C5  C  1.0000  0.39621  0.19099  0.13761  0.0000
C6  C  1.0000  0.46567  0.12748  0.13751  0.0000
C7  C  1.0000  0.59890  0.19880  0.13701  0.0000
C8  C  1.0000  0.66804  0.13490  0.13740  0.0000
C9  C  1.0000  0.80098  0.20386  0.13804  0.0000
C10  C  1.0000  0.86975  0.13822  0.13798  0.0000
C11  C  1.0000  -0.00130  0.40110  0.14121  0.0000
C12  C  1.0000  0.06794  0.33498  0.14020  0.0000
C13  C  1.0000  0.20253  0.40361  0.14207  0.0000
C14  C  1.0000  0.27227  0.33575  0.13941  0.0000
C15  C  1.0000  0.45930  0.32061  0.13644  0.0000
C16  C  1.0000  0.66108  0.33126  0.13773  0.0000
C17  C  1.0000  0.79486  0.40392  0.14045  0.0000
C18  C  1.0000  0.86449  0.33714  0.13980  0.0000
C19  C  1.0000  -0.00419  0.60020  0.14347  0.0000
C20  C  1.0000  0.06424  0.53303  0.14297  0.0000
C21  C  1.0000  0.20012  0.59391  0.14500  0.0000
C22  C  1.0000  0.86028  0.53849  0.14340  0.0000
C23  C  1.0000  0.00120  0.80056  0.14253  0.0000
C24  C  1.0000  0.06827  0.73316  0.14358  0.0000
C25  C  1.0000  0.20320  0.79572  0.14324  0.0000
C26  C  1.0000  0.27258  0.72878  0.14450  0.0000
C27  C  1.0000  0.40939  0.79648  0.14260  0.0000
C28  C  1.0000  0.60696  0.80717  0.14069  0.0000
C29  C  1.0000  0.80497  0.80722  0.14180  0.0000
C30  C  1.0000  0.86776  0.73668  0.14345  0.0000
C31  C  1.0000  0.00425  0.00330  0.13977  0.0000
C32  C  1.0000  0.06757  0.93331  0.14092  0.0000
C33  C  1.0000  0.20008  0.99652  0.14013  0.0000
C34  C  1.0000  0.26758  0.92925  0.14089  0.0000
C35  C  1.0000  0.40085  0.99518  0.13912  0.0000
C36  C  1.0000  0.46995  0.93027  0.13953  0.0000
C37  C  1.0000  0.60305  0.00162  0.13797  0.0000
C38  C  1.0000  0.67308  0.93900  0.13810  0.0000
C39  C  1.0000  0.80558  0.00630  0.13809  0.0000
C40  C  1.0000  0.87170  0.93889  0.13965  0.0000
N1  N  1.0000  0.58932  0.38934  0.13747  0.0000
N2  N  1.0000  0.79457  0.60636  0.14571  0.0000
N3  N  1.0000  0.67421  0.74218  0.14294  0.0000
N4  N  1.0000  0.40384  0.39457  0.13686  0.0000
N5  N  1.0000  0.26282  0.52934  0.14665  0.0000
N6  N  1.0000  0.48159  0.73878  0.14395  0.0000
Cd1  Cd  1.0000  0.44319  0.58157  0.25899  0.0000
Ta1  Ta  1.0000  0.58819  0.55090  0.14967  0.0000
