data_CNCdTc
_audit_creation_method           'pos2cif.pl'
_cell_length_a               12.3170003891
_cell_length_b               12.3170003891315
_cell_length_c               20
_cell_angle_alpha            90
_cell_angle_beta             90
_cell_angle_gamma            120.010002136348
_symmetry_space_group_H-M        'P1'
_symmetry_Int_Tables_number      '1'
_symmetry_cell_setting           'triclinic'
loop_
_symmetry_equiv_pos_as_xyz
x,y,z

loop_
_atom_site_label
_atom_site_type_symbol
_atom_site_occupancy
_atom_site_fract_x
_atom_site_fract_y
_atom_site_fract_z
_atom_site_U_iso_or_equiv
C1  C  1.0000  0.00200  0.20297  0.13775  0.0000
C2  C  1.0000  0.06897  0.13643  0.13830  0.0000
C3  C  1.0000  0.20253  0.20188  0.13857  0.0000
C4  C  1.0000  0.26369  0.12855  0.13869  0.0000
C5  C  1.0000  0.39476  0.19009  0.13854  0.0000
C6  C  1.0000  0.46463  0.12724  0.13898  0.0000
C7  C  1.0000  0.59787  0.19797  0.13885  0.0000
C8  C  1.0000  0.66729  0.13479  0.13807  0.0000
C9  C  1.0000  0.80037  0.20392  0.13813  0.0000
C10  C  1.0000  0.86904  0.13838  0.13733  0.0000
C11  C  1.0000  -0.00174  0.40106  0.14101  0.0000
C12  C  1.0000  0.06749  0.33510  0.13937  0.0000
C13  C  1.0000  0.20223  0.40369  0.14194  0.0000
C14  C  1.0000  0.27352  0.33602  0.13924  0.0000
C15  C  1.0000  0.45767  0.32003  0.13885  0.0000
C16  C  1.0000  0.65940  0.33045  0.14052  0.0000
C17  C  1.0000  0.79393  0.40355  0.14141  0.0000
C18  C  1.0000  0.86367  0.33718  0.14005  0.0000
C19  C  1.0000  -0.00357  0.60044  0.14340  0.0000
C20  C  1.0000  0.06435  0.53310  0.14333  0.0000
C21  C  1.0000  0.19993  0.59404  0.14649  0.0000
C22  C  1.0000  0.86091  0.53859  0.14296  0.0000
C23  C  1.0000  0.00109  0.80104  0.14209  0.0000
C24  C  1.0000  0.06784  0.73306  0.14352  0.0000
C25  C  1.0000  0.20281  0.79567  0.14388  0.0000
C26  C  1.0000  0.27196  0.72903  0.14600  0.0000
C27  C  1.0000  0.40896  0.79751  0.14416  0.0000
C28  C  1.0000  0.60571  0.80660  0.14112  0.0000
C29  C  1.0000  0.80234  0.80684  0.14088  0.0000
C30  C  1.0000  0.86807  0.73745  0.14216  0.0000
C31  C  1.0000  0.00340  0.00331  0.13911  0.0000
C32  C  1.0000  0.06709  0.93349  0.14059  0.0000
C33  C  1.0000  0.19923  0.99605  0.14015  0.0000
C34  C  1.0000  0.26680  0.92916  0.14142  0.0000
C35  C  1.0000  0.39990  0.99514  0.14008  0.0000
C36  C  1.0000  0.46912  0.93085  0.14032  0.0000
C37  C  1.0000  0.60225  0.00169  0.13836  0.0000
C38  C  1.0000  0.67196  0.93890  0.13796  0.0000
C39  C  1.0000  0.80435  0.00610  0.13746  0.0000
C40  C  1.0000  0.87050  0.93881  0.13894  0.0000
N1  N  1.0000  0.58624  0.38532  0.14233  0.0000
N2  N  1.0000  0.79845  0.60809  0.14353  0.0000
N3  N  1.0000  0.67244  0.74245  0.14231  0.0000
N4  N  1.0000  0.40391  0.39391  0.13811  0.0000
N5  N  1.0000  0.26230  0.52893  0.14863  0.0000
N6  N  1.0000  0.47998  0.73987  0.14626  0.0000
Cd1  Cd  1.0000  0.45243  0.58259  0.24537  0.0000
Tc1  Tc  1.0000  0.60899  0.55383  0.14538  0.0000
