data_CNCdTi
_audit_creation_method           'pos2cif.pl'
_cell_length_a               12.3170003891
_cell_length_b               12.3170003891315
_cell_length_c               20
_cell_angle_alpha            90
_cell_angle_beta             90
_cell_angle_gamma            120.010002136348
_symmetry_space_group_H-M        'P1'
_symmetry_Int_Tables_number      '1'
_symmetry_cell_setting           'triclinic'
loop_
_symmetry_equiv_pos_as_xyz
x,y,z

loop_
_atom_site_label
_atom_site_type_symbol
_atom_site_occupancy
_atom_site_fract_x
_atom_site_fract_y
_atom_site_fract_z
_atom_site_U_iso_or_equiv
C1  C  1.0000  0.00234  0.20263  0.13923  0.0000
C2  C  1.0000  0.06935  0.13604  0.13969  0.0000
C3  C  1.0000  0.20300  0.20231  0.13899  0.0000
C4  C  1.0000  0.26507  0.12979  0.13919  0.0000
C5  C  1.0000  0.39656  0.19229  0.13788  0.0000
C6  C  1.0000  0.46574  0.12882  0.13786  0.0000
C7  C  1.0000  0.59910  0.19968  0.13718  0.0000
C8  C  1.0000  0.66795  0.13542  0.13813  0.0000
C9  C  1.0000  0.80081  0.20375  0.13849  0.0000
C10  C  1.0000  0.86920  0.13758  0.13903  0.0000
C11  C  1.0000  -0.00136  0.40100  0.14022  0.0000
C12  C  1.0000  0.06755  0.33471  0.13952  0.0000
C13  C  1.0000  0.20254  0.40402  0.13998  0.0000
C14  C  1.0000  0.27309  0.33626  0.13827  0.0000
C15  C  1.0000  0.46060  0.32334  0.13584  0.0000
C16  C  1.0000  0.66078  0.33267  0.13681  0.0000
C17  C  1.0000  0.79489  0.40398  0.13943  0.0000
C18  C  1.0000  0.86423  0.33708  0.13930  0.0000
C19  C  1.0000  -0.00293  0.60056  0.14227  0.0000
C20  C  1.0000  0.06472  0.53310  0.14151  0.0000
C21  C  1.0000  0.20034  0.59398  0.14259  0.0000
C22  C  1.0000  0.86146  0.53921  0.14214  0.0000
C23  C  1.0000  0.00141  0.80072  0.14247  0.0000
C24  C  1.0000  0.06849  0.73332  0.14283  0.0000
C25  C  1.0000  0.20361  0.79626  0.14261  0.0000
C26  C  1.0000  0.27247  0.72923  0.14311  0.0000
C27  C  1.0000  0.40945  0.79743  0.14233  0.0000
C28  C  1.0000  0.60537  0.80558  0.14156  0.0000
C29  C  1.0000  0.80254  0.80499  0.14239  0.0000
C30  C  1.0000  0.86760  0.73536  0.14323  0.0000
C31  C  1.0000  0.00365  0.00269  0.14080  0.0000
C32  C  1.0000  0.06775  0.93347  0.14148  0.0000
C33  C  1.0000  0.20035  0.99709  0.14067  0.0000
C34  C  1.0000  0.26786  0.93005  0.14110  0.0000
C35  C  1.0000  0.40095  -0.00381  0.13960  0.0000
C36  C  1.0000  0.46981  0.93119  0.14014  0.0000
C37  C  1.0000  0.60293  0.00189  0.13914  0.0000
C38  C  1.0000  0.67225  0.93852  0.13969  0.0000
C39  C  1.0000  0.80459  0.00535  0.13971  0.0000
C40  C  1.0000  0.87041  0.93718  0.14101  0.0000
N1  N  1.0000  0.58939  0.39048  0.13469  0.0000
N2  N  1.0000  0.79751  0.60609  0.14444  0.0000
N3  N  1.0000  0.67176  0.73986  0.14298  0.0000
N4  N  1.0000  0.40415  0.39571  0.13596  0.0000
N5  N  1.0000  0.26285  0.52951  0.14259  0.0000
N6  N  1.0000  0.48022  0.73908  0.14357  0.0000
Cd1  Cd  1.0000  0.44560  0.57455  0.27141  0.0000
Ti1  Ti  1.0000  0.58903  0.55112  0.14885  0.0000
