data_CNCdV
_audit_creation_method           'pos2cif.pl'
_cell_length_a               12.3170003891
_cell_length_b               12.3170003891315
_cell_length_c               20
_cell_angle_alpha            90
_cell_angle_beta             90
_cell_angle_gamma            120.010002136348
_symmetry_space_group_H-M        'P1'
_symmetry_Int_Tables_number      '1'
_symmetry_cell_setting           'triclinic'
loop_
_symmetry_equiv_pos_as_xyz
x,y,z

loop_
_atom_site_label
_atom_site_type_symbol
_atom_site_occupancy
_atom_site_fract_x
_atom_site_fract_y
_atom_site_fract_z
_atom_site_U_iso_or_equiv
C1  C  1.0000  0.00196  0.20231  0.13692  0.0000
C2  C  1.0000  0.06890  0.13563  0.13749  0.0000
C3  C  1.0000  0.20253  0.20170  0.13784  0.0000
C4  C  1.0000  0.26456  0.12946  0.13746  0.0000
C5  C  1.0000  0.39594  0.19220  0.13601  0.0000
C6  C  1.0000  0.46534  0.12881  0.13571  0.0000
C7  C  1.0000  0.59871  0.19911  0.13523  0.0000
C8  C  1.0000  0.66761  0.13492  0.13550  0.0000
C9  C  1.0000  0.80065  0.20350  0.13629  0.0000
C10  C  1.0000  0.86895  0.13742  0.13593  0.0000
C11  C  1.0000  -0.00145  0.40071  0.14148  0.0000
C12  C  1.0000  0.06756  0.33453  0.13954  0.0000
C13  C  1.0000  0.20214  0.40307  0.14335  0.0000
C14  C  1.0000  0.27384  0.33609  0.13950  0.0000
C15  C  1.0000  0.45969  0.32334  0.13580  0.0000
C16  C  1.0000  0.66026  0.33211  0.13690  0.0000
C17  C  1.0000  0.79473  0.40365  0.14083  0.0000
C18  C  1.0000  0.86415  0.33684  0.13932  0.0000
C19  C  1.0000  -0.00246  0.60047  0.14490  0.0000
C20  C  1.0000  0.06499  0.53297  0.14455  0.0000
C21  C  1.0000  0.20020  0.59420  0.14862  0.0000
C22  C  1.0000  0.86213  0.53876  0.14511  0.0000
C23  C  1.0000  0.00129  0.80074  0.14297  0.0000
C24  C  1.0000  0.06842  0.73324  0.14485  0.0000
C25  C  1.0000  0.20331  0.79630  0.14462  0.0000
C26  C  1.0000  0.27225  0.72949  0.14746  0.0000
C27  C  1.0000  0.40901  0.79839  0.14489  0.0000
C28  C  1.0000  0.60538  0.80498  0.14213  0.0000
C29  C  1.0000  0.80104  0.80432  0.14275  0.0000
C30  C  1.0000  0.86794  0.73568  0.14470  0.0000
C31  C  1.0000  0.00298  0.00226  0.13862  0.0000
C32  C  1.0000  0.06744  0.93333  0.14033  0.0000
C33  C  1.0000  0.19980  0.99669  0.13929  0.0000
C34  C  1.0000  0.26738  0.92984  0.14071  0.0000
C35  C  1.0000  0.40045  0.99625  0.13813  0.0000
C36  C  1.0000  0.46936  0.93157  0.13902  0.0000
C37  C  1.0000  0.60248  0.00152  0.13654  0.0000
C38  C  1.0000  0.67160  0.93765  0.13705  0.0000
C39  C  1.0000  0.80401  0.00477  0.13649  0.0000
C40  C  1.0000  0.86967  0.93672  0.13900  0.0000
N1  N  1.0000  0.58844  0.38894  0.13640  0.0000
N2  N  1.0000  0.79960  0.60679  0.14854  0.0000
N3  N  1.0000  0.67053  0.73883  0.14521  0.0000
N4  N  1.0000  0.40420  0.39566  0.13819  0.0000
N5  N  1.0000  0.26199  0.52838  0.15187  0.0000
N6  N  1.0000  0.47972  0.74056  0.14841  0.0000
Cd1  Cd  1.0000  0.44049  0.58438  0.24122  0.0000
V1  V  1.0000  0.60728  0.55207  0.15824  0.0000
