data_CNCdW
_audit_creation_method           'pos2cif.pl'
_cell_length_a               12.3170003891
_cell_length_b               12.3170003891315
_cell_length_c               20
_cell_angle_alpha            90
_cell_angle_beta             90
_cell_angle_gamma            120.010002136348
_symmetry_space_group_H-M        'P1'
_symmetry_Int_Tables_number      '1'
_symmetry_cell_setting           'triclinic'
loop_
_symmetry_equiv_pos_as_xyz
x,y,z

loop_
_atom_site_label
_atom_site_type_symbol
_atom_site_occupancy
_atom_site_fract_x
_atom_site_fract_y
_atom_site_fract_z
_atom_site_U_iso_or_equiv
C1  C  1.0000  0.00289  0.20290  0.13562  0.0000
C2  C  1.0000  0.06977  0.13640  0.13617  0.0000
C3  C  1.0000  0.20329  0.20233  0.13676  0.0000
C4  C  1.0000  0.26437  0.12899  0.13547  0.0000
C5  C  1.0000  0.39561  0.19052  0.13316  0.0000
C6  C  1.0000  0.46551  0.12781  0.13269  0.0000
C7  C  1.0000  0.59915  0.19822  0.13247  0.0000
C8  C  1.0000  0.66822  0.13432  0.13275  0.0000
C9  C  1.0000  0.80125  0.20352  0.13432  0.0000
C10  C  1.0000  0.86970  0.13769  0.13389  0.0000
C11  C  1.0000  -0.00110  0.40091  0.14226  0.0000
C12  C  1.0000  0.06846  0.33495  0.13984  0.0000
C13  C  1.0000  0.20268  0.40284  0.14521  0.0000
C14  C  1.0000  0.27405  0.33664  0.13995  0.0000
C15  C  1.0000  0.45885  0.32047  0.13412  0.0000
C16  C  1.0000  0.66121  0.33046  0.13582  0.0000
C17  C  1.0000  0.79501  0.40355  0.14125  0.0000
C18  C  1.0000  0.86488  0.33686  0.13892  0.0000
C19  C  1.0000  -0.00351  0.60042  0.14716  0.0000
C20  C  1.0000  0.06451  0.53317  0.14652  0.0000
C21  C  1.0000  0.19987  0.59477  0.15138  0.0000
C22  C  1.0000  0.86109  0.53821  0.14732  0.0000
C23  C  1.0000  0.00134  0.80113  0.14413  0.0000
C24  C  1.0000  0.06820  0.73352  0.14656  0.0000
C25  C  1.0000  0.20274  0.79633  0.14547  0.0000
C26  C  1.0000  0.27206  0.72971  0.14916  0.0000
C27  C  1.0000  0.40880  0.79898  0.14569  0.0000
C28  C  1.0000  0.60601  0.80601  0.14365  0.0000
C29  C  1.0000  0.80339  0.80625  0.14441  0.0000
C30  C  1.0000  0.86847  0.73754  0.14658  0.0000
C31  C  1.0000  0.00374  0.00297  0.13767  0.0000
C32  C  1.0000  0.06743  0.93349  0.14013  0.0000
C33  C  1.0000  0.19972  0.99662  0.13811  0.0000
C34  C  1.0000  0.26725  0.92967  0.13978  0.0000
C35  C  1.0000  0.40039  0.99570  0.13595  0.0000
C36  C  1.0000  0.46954  0.93134  0.13747  0.0000
C37  C  1.0000  0.60280  0.00108  0.13424  0.0000
C38  C  1.0000  0.67225  0.93762  0.13565  0.0000
C39  C  1.0000  0.80490  0.00538  0.13479  0.0000
C40  C  1.0000  0.87080  0.93796  0.13846  0.0000
N1  N  1.0000  0.58798  0.38609  0.13677  0.0000
N2  N  1.0000  0.79762  0.60746  0.15163  0.0000
N3  N  1.0000  0.67205  0.73994  0.14926  0.0000
N4  N  1.0000  0.40601  0.39489  0.13822  0.0000
N5  N  1.0000  0.26145  0.52850  0.15613  0.0000
N6  N  1.0000  0.48063  0.74232  0.15105  0.0000
Cd1  Cd  1.0000  0.43173  0.58451  0.23598  0.0000
W1  W  1.0000  0.60397  0.55018  0.16195  0.0000
