data_CNCdY
_audit_creation_method           'pos2cif.pl'
_cell_length_a               12.3170003891
_cell_length_b               12.3170003891315
_cell_length_c               20
_cell_angle_alpha            90
_cell_angle_beta             90
_cell_angle_gamma            120.010002136348
_symmetry_space_group_H-M        'P1'
_symmetry_Int_Tables_number      '1'
_symmetry_cell_setting           'triclinic'
loop_
_symmetry_equiv_pos_as_xyz
x,y,z

loop_
_atom_site_label
_atom_site_type_symbol
_atom_site_occupancy
_atom_site_fract_x
_atom_site_fract_y
_atom_site_fract_z
_atom_site_U_iso_or_equiv
C1  C  1.0000  0.00310  0.20197  0.13687  0.0000
C2  C  1.0000  0.06965  0.13500  0.13631  0.0000
C3  C  1.0000  0.20272  0.20058  0.13806  0.0000
C4  C  1.0000  0.26545  0.12856  0.13649  0.0000
C5  C  1.0000  0.39695  0.19115  0.13656  0.0000
C6  C  1.0000  0.46666  0.12836  0.13587  0.0000
C7  C  1.0000  0.60004  0.19940  0.13669  0.0000
C8  C  1.0000  0.66899  0.13544  0.13534  0.0000
C9  C  1.0000  0.80189  0.20348  0.13681  0.0000
C10  C  1.0000  0.87019  0.13738  0.13479  0.0000
C11  C  1.0000  -0.00042  0.40019  0.14300  0.0000
C12  C  1.0000  0.06835  0.33385  0.14120  0.0000
C13  C  1.0000  0.20264  0.40179  0.14585  0.0000
C14  C  1.0000  0.27191  0.33370  0.14267  0.0000
C15  C  1.0000  0.46072  0.32213  0.13958  0.0000
C16  C  1.0000  0.66126  0.33219  0.14062  0.0000
C17  C  1.0000  0.79595  0.40350  0.14376  0.0000
C18  C  1.0000  0.86540  0.33661  0.14130  0.0000
C19  C  1.0000  -0.00034  0.60027  0.14468  0.0000
C20  C  1.0000  0.06666  0.53260  0.14478  0.0000
C21  C  1.0000  0.20185  0.59343  0.14798  0.0000
C22  C  1.0000  0.86425  0.53888  0.14662  0.0000
C23  C  1.0000  0.00303  0.80056  0.14022  0.0000
C24  C  1.0000  0.07021  0.73308  0.14325  0.0000
C25  C  1.0000  0.20501  0.79588  0.14237  0.0000
C26  C  1.0000  0.27406  0.72884  0.14499  0.0000
C27  C  1.0000  0.41063  0.79707  0.14039  0.0000
C28  C  1.0000  0.60721  0.80708  0.13365  0.0000
C29  C  1.0000  0.80387  0.80478  0.13512  0.0000
C30  C  1.0000  0.86934  0.73507  0.14175  0.0000
C31  C  1.0000  0.00447  0.00193  0.13536  0.0000
C32  C  1.0000  0.06876  0.93275  0.13702  0.0000
C33  C  1.0000  0.20123  0.99627  0.13680  0.0000
C34  C  1.0000  0.26890  0.92935  0.13833  0.0000
C35  C  1.0000  0.40186  -0.00448  0.13655  0.0000
C36  C  1.0000  0.47069  0.93074  0.13645  0.0000
C37  C  1.0000  0.60395  0.00227  0.13410  0.0000
C38  C  1.0000  0.67340  0.93954  0.13231  0.0000
C39  C  1.0000  0.80577  0.00523  0.13246  0.0000
C40  C  1.0000  0.87184  0.93706  0.13371  0.0000
N1  N  1.0000  0.58892  0.38881  0.14242  0.0000
N2  N  1.0000  0.80199  0.60643  0.15000  0.0000
N3  N  1.0000  0.67348  0.74317  0.13248  0.0000
N4  N  1.0000  0.40267  0.39277  0.14360  0.0000
N5  N  1.0000  0.26347  0.52793  0.15331  0.0000
N6  N  1.0000  0.48186  0.73882  0.13971  0.0000
Cd1  Cd  1.0000  0.39731  0.59097  0.27118  0.0000
Y1  Y  1.0000  0.58921  0.55880  0.17856  0.0000
