data_CNCdZn
_audit_creation_method           'pos2cif.pl'
_cell_length_a               12.3170003891
_cell_length_b               12.3170003891315
_cell_length_c               20
_cell_angle_alpha            90
_cell_angle_beta             90
_cell_angle_gamma            120.010002136348
_symmetry_space_group_H-M        'P1'
_symmetry_Int_Tables_number      '1'
_symmetry_cell_setting           'triclinic'
loop_
_symmetry_equiv_pos_as_xyz
x,y,z

loop_
_atom_site_label
_atom_site_type_symbol
_atom_site_occupancy
_atom_site_fract_x
_atom_site_fract_y
_atom_site_fract_z
_atom_site_U_iso_or_equiv
C1  C  1.0000  0.00024  0.20148  0.13823  0.0000
C2  C  1.0000  0.06698  0.13437  0.13790  0.0000
C3  C  1.0000  0.20035  0.19994  0.13788  0.0000
C4  C  1.0000  0.26393  0.12915  0.13780  0.0000
C5  C  1.0000  0.39518  0.19265  0.13797  0.0000
C6  C  1.0000  0.46489  0.12957  0.13884  0.0000
C7  C  1.0000  0.59798  0.20082  0.13947  0.0000
C8  C  1.0000  0.66674  0.13591  0.13913  0.0000
C9  C  1.0000  0.79956  0.20372  0.13932  0.0000
C10  C  1.0000  0.86748  0.13706  0.13817  0.0000
C11  C  1.0000  -0.00244  0.40052  0.14157  0.0000
C12  C  1.0000  0.06562  0.33370  0.13981  0.0000
C13  C  1.0000  0.20034  0.40228  0.14156  0.0000
C14  C  1.0000  0.27084  0.33364  0.13903  0.0000
C15  C  1.0000  0.45773  0.32406  0.13882  0.0000
C16  C  1.0000  0.65845  0.33472  0.14116  0.0000
C17  C  1.0000  0.79396  0.40462  0.14249  0.0000
C18  C  1.0000  0.86273  0.33715  0.14115  0.0000
C19  C  1.0000  -0.00019  0.60101  0.14295  0.0000
C20  C  1.0000  0.06591  0.53284  0.14300  0.0000
C21  C  1.0000  0.20098  0.59350  0.14531  0.0000
C22  C  1.0000  0.86471  0.54011  0.14362  0.0000
C23  C  1.0000  0.00310  0.80152  0.14075  0.0000
C24  C  1.0000  0.06971  0.73346  0.14246  0.0000
C25  C  1.0000  0.20458  0.79640  0.14264  0.0000
C26  C  1.0000  0.27287  0.72908  0.14455  0.0000
C27  C  1.0000  0.40954  0.79796  0.14303  0.0000
C28  C  1.0000  0.60432  0.80415  0.14011  0.0000
C29  C  1.0000  0.80062  0.80376  0.13953  0.0000
C30  C  1.0000  0.86988  0.73555  0.14141  0.0000
C31  C  1.0000  0.00216  0.00147  0.13822  0.0000
C32  C  1.0000  0.06801  0.93355  0.13913  0.0000
C33  C  1.0000  0.20013  0.99667  0.13894  0.0000
C34  C  1.0000  0.26788  0.93000  0.14044  0.0000
C35  C  1.0000  0.40070  0.99673  0.13976  0.0000
C36  C  1.0000  0.46928  0.93167  0.14029  0.0000
C37  C  1.0000  0.60226  0.00225  0.13906  0.0000
C38  C  1.0000  0.67095  0.93776  0.13844  0.0000
C39  C  1.0000  0.80296  0.00436  0.13778  0.0000
C40  C  1.0000  0.86886  0.93604  0.13828  0.0000
N1  N  1.0000  0.58526  0.39081  0.14151  0.0000
N2  N  1.0000  0.80524  0.60892  0.14458  0.0000
N3  N  1.0000  0.67120  0.73985  0.13980  0.0000
N4  N  1.0000  0.39926  0.39315  0.13915  0.0000
N5  N  1.0000  0.26229  0.52747  0.14713  0.0000
N6  N  1.0000  0.47904  0.73882  0.14423  0.0000
Cd1  Cd  1.0000  0.45111  0.57500  0.25108  0.0000
Zn1  Zn  1.0000  0.61384  0.56196  0.15442  0.0000
