data_CNCdZr
_audit_creation_method           'pos2cif.pl'
_cell_length_a               12.3170003891
_cell_length_b               12.3170003891315
_cell_length_c               20
_cell_angle_alpha            90
_cell_angle_beta             90
_cell_angle_gamma            120.010002136348
_symmetry_space_group_H-M        'P1'
_symmetry_Int_Tables_number      '1'
_symmetry_cell_setting           'triclinic'
loop_
_symmetry_equiv_pos_as_xyz
x,y,z

loop_
_atom_site_label
_atom_site_type_symbol
_atom_site_occupancy
_atom_site_fract_x
_atom_site_fract_y
_atom_site_fract_z
_atom_site_U_iso_or_equiv
C1  C  1.0000  0.00279  0.20232  0.13803  0.0000
C2  C  1.0000  0.06957  0.13554  0.13756  0.0000
C3  C  1.0000  0.20278  0.20122  0.13866  0.0000
C4  C  1.0000  0.26484  0.12861  0.13835  0.0000
C5  C  1.0000  0.39637  0.19091  0.13874  0.0000
C6  C  1.0000  0.46604  0.12801  0.13801  0.0000
C7  C  1.0000  0.59936  0.19925  0.13811  0.0000
C8  C  1.0000  0.66840  0.13527  0.13738  0.0000
C9  C  1.0000  0.80125  0.20354  0.13810  0.0000
C10  C  1.0000  0.86975  0.13755  0.13685  0.0000
C11  C  1.0000  -0.00105  0.40043  0.14189  0.0000
C12  C  1.0000  0.06790  0.33421  0.14061  0.0000
C13  C  1.0000  0.20258  0.40290  0.14276  0.0000
C14  C  1.0000  0.27172  0.33465  0.14072  0.0000
C15  C  1.0000  0.46006  0.32137  0.13932  0.0000
C16  C  1.0000  0.66111  0.33201  0.13971  0.0000
C17  C  1.0000  0.79530  0.40367  0.14209  0.0000
C18  C  1.0000  0.86480  0.33672  0.14076  0.0000
C19  C  1.0000  -0.00217  0.60011  0.14342  0.0000
C20  C  1.0000  0.06540  0.53264  0.14316  0.0000
C21  C  1.0000  0.20111  0.59335  0.14438  0.0000
C22  C  1.0000  0.86222  0.53875  0.14448  0.0000
C23  C  1.0000  0.00207  0.80036  0.14019  0.0000
C24  C  1.0000  0.06919  0.73296  0.14232  0.0000
C25  C  1.0000  0.20408  0.79563  0.14157  0.0000
C26  C  1.0000  0.27318  0.72857  0.14264  0.0000
C27  C  1.0000  0.40983  0.79653  0.13994  0.0000
C28  C  1.0000  0.60657  0.80729  0.13607  0.0000
C29  C  1.0000  0.80457  0.80581  0.13719  0.0000
C30  C  1.0000  0.86846  0.73553  0.14136  0.0000
C31  C  1.0000  0.00430  0.00241  0.13694  0.0000
C32  C  1.0000  0.06806  0.93282  0.13813  0.0000
C33  C  1.0000  0.20061  0.99631  0.13844  0.0000
C34  C  1.0000  0.26820  0.92925  0.13939  0.0000
C35  C  1.0000  0.40125  -0.00469  0.13829  0.0000
C36  C  1.0000  0.47016  0.93040  0.13795  0.0000
C37  C  1.0000  0.60336  0.00206  0.13655  0.0000
C38  C  1.0000  0.67308  0.93947  0.13531  0.0000
C39  C  1.0000  0.80547  0.00560  0.13537  0.0000
C40  C  1.0000  0.87166  0.93769  0.13593  0.0000
N1  N  1.0000  0.58874  0.38906  0.13969  0.0000
N2  N  1.0000  0.79841  0.60601  0.14693  0.0000
N3  N  1.0000  0.67368  0.74295  0.13649  0.0000
N4  N  1.0000  0.40312  0.39393  0.14044  0.0000
N5  N  1.0000  0.26360  0.52882  0.14653  0.0000
N6  N  1.0000  0.48158  0.73859  0.13920  0.0000
Cd1  Cd  1.0000  0.42795  0.59028  0.28208  0.0000
Zr1  Zr  1.0000  0.58574  0.55450  0.16393  0.0000
