data_CNCo
_audit_creation_method           'pos2cif.pl'
_cell_length_a               12.3170003891
_cell_length_b               12.3170003891315
_cell_length_c               20
_cell_angle_alpha            90
_cell_angle_beta             90
_cell_angle_gamma            120.010002136348
_symmetry_space_group_H-M        'P1'
_symmetry_Int_Tables_number      '1'
_symmetry_cell_setting           'triclinic'
loop_
_symmetry_equiv_pos_as_xyz
x,y,z

loop_
_atom_site_label
_atom_site_type_symbol
_atom_site_occupancy
_atom_site_fract_x
_atom_site_fract_y
_atom_site_fract_z
_atom_site_U_iso_or_equiv
C1  C  1.0000  0.99880  0.20019  0.14305  0.0000
C2  C  1.0000  0.06532  0.13295  0.14313  0.0000
C3  C  1.0000  0.19767  0.19705  0.14323  0.0000
C4  C  1.0000  0.26377  0.12919  0.14338  0.0000
C5  C  1.0000  0.39548  0.19593  0.14343  0.0000
C6  C  1.0000  0.46473  0.13136  0.14336  0.0000
C7  C  1.0000  0.59755  0.20286  0.14328  0.0000
C8  C  1.0000  0.66603  0.13653  0.14317  0.0000
C9  C  1.0000  0.79884  0.20399  0.14308  0.0000
C10  C  1.0000  0.86661  0.13697  0.14309  0.0000
C11  C  1.0000  0.99649  0.40024  0.14294  0.0000
C12  C  1.0000  0.06329  0.33220  0.14294  0.0000
C13  C  1.0000  0.19590  0.39646  0.14293  0.0000
C14  C  1.0000  0.26354  0.32881  0.14314  0.0000
C15  C  1.0000  0.45722  0.32868  0.14339  0.0000
C16  C  1.0000  0.65773  0.33719  0.14331  0.0000
C17  C  1.0000  0.79338  0.40574  0.14319  0.0000
C18  C  1.0000  0.86216  0.33773  0.14306  0.0000
C19  C  1.0000  0.00026  0.60105  0.14305  0.0000
C20  C  1.0000  0.06711  0.53275  0.14293  0.0000
C21  C  1.0000  0.20304  0.59337  0.14288  0.0000
C22  C  1.0000  0.86435  0.54043  0.14317  0.0000
C23  C  1.0000  0.00406  0.80158  0.14325  0.0000
C24  C  1.0000  0.07087  0.73355  0.14312  0.0000
C25  C  1.0000  0.20518  0.79605  0.14310  0.0000
C26  C  1.0000  0.27398  0.72807  0.14299  0.0000
C27  C  1.0000  0.40964  0.79662  0.14310  0.0000
C28  C  1.0000  0.61014  0.80512  0.14315  0.0000
C29  C  1.0000  0.80383  0.80498  0.14326  0.0000
C30  C  1.0000  0.87147  0.73734  0.14328  0.0000
C31  C  1.0000  0.00204  0.00086  0.14320  0.0000
C32  C  1.0000  0.06854  0.93359  0.14326  0.0000
C33  C  1.0000  0.20074  0.99682  0.14333  0.0000
C34  C  1.0000  0.26852  0.92979  0.14326  0.0000
C35  C  1.0000  0.40133  0.99727  0.14328  0.0000
C36  C  1.0000  0.46984  0.93097  0.14322  0.0000
C37  C  1.0000  0.60266  0.00247  0.14320  0.0000
C38  C  1.0000  0.67190  0.93789  0.14318  0.0000
C39  C  1.0000  0.80361  0.00459  0.14317  0.0000
C40  C  1.0000  0.86971  0.93673  0.14320  0.0000
N1  N  1.0000  0.58564  0.39673  0.14339  0.0000
N2  N  1.0000  0.80381  0.60967  0.14323  0.0000
N3  N  1.0000  0.67407  0.73881  0.14323  0.0000
N4  N  1.0000  0.39331  0.39498  0.14327  0.0000
N5  N  1.0000  0.26357  0.52411  0.14284  0.0000
N6  N  1.0000  0.48174  0.73706  0.14307  0.0000
Co1  Co  1.0000  0.44296  0.56923  0.14301  0.0000
Co2  Co  1.0000  0.62458  0.56461  0.14329  0.0000
