data_CNCoCr
_audit_creation_method           'pos2cif.pl'
_cell_length_a               12.3170003891
_cell_length_b               12.3170003891315
_cell_length_c               20
_cell_angle_alpha            90
_cell_angle_beta             90
_cell_angle_gamma            120.010002136348
_symmetry_space_group_H-M        'P1'
_symmetry_Int_Tables_number      '1'
_symmetry_cell_setting           'triclinic'
loop_
_symmetry_equiv_pos_as_xyz
x,y,z

loop_
_atom_site_label
_atom_site_type_symbol
_atom_site_occupancy
_atom_site_fract_x
_atom_site_fract_y
_atom_site_fract_z
_atom_site_U_iso_or_equiv
C1  C  1.0000  0.99883  0.19980  0.14234  0.0000
C2  C  1.0000  0.06575  0.13324  0.14212  0.0000
C3  C  1.0000  0.19818  0.19759  0.14232  0.0000
C4  C  1.0000  0.26366  0.12903  0.14235  0.0000
C5  C  1.0000  0.39519  0.19537  0.14277  0.0000
C6  C  1.0000  0.46473  0.13119  0.14296  0.0000
C7  C  1.0000  0.59763  0.20108  0.14323  0.0000
C8  C  1.0000  0.66626  0.13589  0.14301  0.0000
C9  C  1.0000  0.79901  0.20341  0.14289  0.0000
C10  C  1.0000  0.86675  0.13666  0.14248  0.0000
C11  C  1.0000  0.99669  0.39976  0.14305  0.0000
C12  C  1.0000  0.06310  0.33157  0.14268  0.0000
C13  C  1.0000  0.19518  0.39566  0.14294  0.0000
C14  C  1.0000  0.26410  0.32922  0.14285  0.0000
C15  C  1.0000  0.45769  0.32777  0.14345  0.0000
C16  C  1.0000  0.65850  0.33427  0.14377  0.0000
C17  C  1.0000  0.79416  0.40445  0.14371  0.0000
C18  C  1.0000  0.86269  0.33688  0.14320  0.0000
C19  C  1.0000  0.00130  0.60075  0.14328  0.0000
C20  C  1.0000  0.06712  0.53229  0.14323  0.0000
C21  C  1.0000  0.20228  0.59328  0.14337  0.0000
C22  C  1.0000  0.86624  0.53933  0.14371  0.0000
C23  C  1.0000  0.00427  0.80184  0.14269  0.0000
C24  C  1.0000  0.07083  0.73341  0.14298  0.0000
C25  C  1.0000  0.20491  0.79625  0.14299  0.0000
C26  C  1.0000  0.27350  0.72846  0.14339  0.0000
C27  C  1.0000  0.40878  0.79800  0.14362  0.0000
C28  C  1.0000  0.60922  0.80741  0.14371  0.0000
C29  C  1.0000  0.80396  0.80585  0.14316  0.0000
C30  C  1.0000  0.87192  0.73737  0.14324  0.0000
C31  C  1.0000  0.00251  0.00122  0.14213  0.0000
C32  C  1.0000  0.06860  0.93370  0.14226  0.0000
C33  C  1.0000  0.20072  0.99701  0.14233  0.0000
C34  C  1.0000  0.26830  0.92996  0.14272  0.0000
C35  C  1.0000  0.40092  0.99748  0.14293  0.0000
C36  C  1.0000  0.46941  0.93178  0.14324  0.0000
C37  C  1.0000  0.60233  0.00279  0.14305  0.0000
C38  C  1.0000  0.67173  0.93916  0.14298  0.0000
C39  C  1.0000  0.80359  0.00471  0.14253  0.0000
C40  C  1.0000  0.87036  0.93734  0.14245  0.0000
N1  N  1.0000  0.58585  0.39146  0.14430  0.0000
N2  N  1.0000  0.80731  0.60881  0.14403  0.0000
N3  N  1.0000  0.67404  0.74370  0.14405  0.0000
N4  N  1.0000  0.39481  0.39630  0.14354  0.0000
N5  N  1.0000  0.26144  0.52357  0.14346  0.0000
N6  N  1.0000  0.48080  0.73904  0.14411  0.0000
Co1  Co  1.0000  0.43225  0.57060  0.14444  0.0000
Cr1  Cr  1.0000  0.62961  0.56545  0.14591  0.0000
