data_CNCoCu
_audit_creation_method           'pos2cif.pl'
_cell_length_a               12.3170003891
_cell_length_b               12.3170003891315
_cell_length_c               20
_cell_angle_alpha            90
_cell_angle_beta             90
_cell_angle_gamma            120.010002136348
_symmetry_space_group_H-M        'P1'
_symmetry_Int_Tables_number      '1'
_symmetry_cell_setting           'triclinic'
loop_
_symmetry_equiv_pos_as_xyz
x,y,z

loop_
_atom_site_label
_atom_site_type_symbol
_atom_site_occupancy
_atom_site_fract_x
_atom_site_fract_y
_atom_site_fract_z
_atom_site_U_iso_or_equiv
C1  C  1.0000  0.99810  0.19930  0.14286  0.0000
C2  C  1.0000  0.06439  0.13194  0.14285  0.0000
C3  C  1.0000  0.19677  0.19628  0.14290  0.0000
C4  C  1.0000  0.26369  0.12923  0.14299  0.0000
C5  C  1.0000  0.39524  0.19661  0.14320  0.0000
C6  C  1.0000  0.46489  0.13239  0.14326  0.0000
C7  C  1.0000  0.59772  0.20348  0.14338  0.0000
C8  C  1.0000  0.66591  0.13681  0.14325  0.0000
C9  C  1.0000  0.79860  0.20362  0.14313  0.0000
C10  C  1.0000  0.86591  0.13604  0.14299  0.0000
C11  C  1.0000  0.99660  0.39989  0.14291  0.0000
C12  C  1.0000  0.06288  0.33158  0.14282  0.0000
C13  C  1.0000  0.19519  0.39538  0.14286  0.0000
C14  C  1.0000  0.26240  0.32772  0.14298  0.0000
C15  C  1.0000  0.45705  0.32980  0.14341  0.0000
C16  C  1.0000  0.65784  0.33809  0.14355  0.0000
C17  C  1.0000  0.79390  0.40567  0.14340  0.0000
C18  C  1.0000  0.86221  0.33738  0.14314  0.0000
C19  C  1.0000  0.00305  0.60117  0.14302  0.0000
C20  C  1.0000  0.06869  0.53247  0.14290  0.0000
C21  C  1.0000  0.20418  0.59358  0.14292  0.0000
C22  C  1.0000  0.86777  0.54064  0.14331  0.0000
C23  C  1.0000  0.00528  0.80194  0.14303  0.0000
C24  C  1.0000  0.07190  0.73367  0.14297  0.0000
C25  C  1.0000  0.20592  0.79656  0.14296  0.0000
C26  C  1.0000  0.27423  0.72846  0.14302  0.0000
C27  C  1.0000  0.40916  0.79743  0.14324  0.0000
C28  C  1.0000  0.60813  0.80446  0.14346  0.0000
C29  C  1.0000  0.80284  0.80341  0.14335  0.0000
C30  C  1.0000  0.87272  0.73657  0.14329  0.0000
C31  C  1.0000  0.00135  -0.00013  0.14293  0.0000
C32  C  1.0000  0.06891  0.93356  0.14293  0.0000
C33  C  1.0000  0.20104  0.99708  0.14293  0.0000
C34  C  1.0000  0.26892  0.93027  0.14300  0.0000
C35  C  1.0000  0.40155  0.99813  0.14314  0.0000
C36  C  1.0000  0.46969  0.93165  0.14323  0.0000
C37  C  1.0000  0.60234  0.00273  0.14324  0.0000
C38  C  1.0000  0.67085  0.93746  0.14326  0.0000
C39  C  1.0000  0.80264  0.00350  0.14311  0.0000
C40  C  1.0000  0.86882  0.93534  0.14310  0.0000
N1  N  1.0000  0.58460  0.39639  0.14373  0.0000
N2  N  1.0000  0.80944  0.60966  0.14348  0.0000
N3  N  1.0000  0.67239  0.73901  0.14362  0.0000
N4  N  1.0000  0.39172  0.39519  0.14327  0.0000
N5  N  1.0000  0.26448  0.52388  0.14294  0.0000
N6  N  1.0000  0.47987  0.73654  0.14344  0.0000
Co1  Co  1.0000  0.43340  0.56919  0.14339  0.0000
Cu1  Cu  1.0000  0.63184  0.57015  0.14386  0.0000
