data_CNCoFe
_audit_creation_method           'pos2cif.pl'
_cell_length_a               12.3170003891
_cell_length_b               12.3170003891315
_cell_length_c               20
_cell_angle_alpha            90
_cell_angle_beta             90
_cell_angle_gamma            120.010002136348
_symmetry_space_group_H-M        'P1'
_symmetry_Int_Tables_number      '1'
_symmetry_cell_setting           'triclinic'
loop_
_symmetry_equiv_pos_as_xyz
x,y,z

loop_
_atom_site_label
_atom_site_type_symbol
_atom_site_occupancy
_atom_site_fract_x
_atom_site_fract_y
_atom_site_fract_z
_atom_site_U_iso_or_equiv
C1  C  1.0000  0.99876  0.20028  0.14235  0.0000
C2  C  1.0000  0.06532  0.13304  0.14211  0.0000
C3  C  1.0000  0.19751  0.19691  0.14229  0.0000
C4  C  1.0000  0.26358  0.12887  0.14241  0.0000
C5  C  1.0000  0.39507  0.19513  0.14293  0.0000
C6  C  1.0000  0.46461  0.13090  0.14323  0.0000
C7  C  1.0000  0.59752  0.20280  0.14349  0.0000
C8  C  1.0000  0.66600  0.13662  0.14326  0.0000
C9  C  1.0000  0.79873  0.20409  0.14302  0.0000
C10  C  1.0000  0.86663  0.13711  0.14255  0.0000
C11  C  1.0000  0.99633  0.40025  0.14316  0.0000
C12  C  1.0000  0.06302  0.33216  0.14273  0.0000
C13  C  1.0000  0.19554  0.39648  0.14288  0.0000
C14  C  1.0000  0.26298  0.32836  0.14274  0.0000
C15  C  1.0000  0.45656  0.32757  0.14337  0.0000
C16  C  1.0000  0.65760  0.33697  0.14381  0.0000
C17  C  1.0000  0.79327  0.40576  0.14375  0.0000
C18  C  1.0000  0.86199  0.33775  0.14332  0.0000
C19  C  1.0000  0.00056  0.60106  0.14344  0.0000
C20  C  1.0000  0.06702  0.53265  0.14336  0.0000
C21  C  1.0000  0.20271  0.59304  0.14337  0.0000
C22  C  1.0000  0.86496  0.54074  0.14373  0.0000
C23  C  1.0000  0.00473  0.80186  0.14281  0.0000
C24  C  1.0000  0.07129  0.73360  0.14311  0.0000
C25  C  1.0000  0.20558  0.79595  0.14310  0.0000
C26  C  1.0000  0.27429  0.72785  0.14342  0.0000
C27  C  1.0000  0.40995  0.79607  0.14357  0.0000
C28  C  1.0000  0.61047  0.80617  0.14365  0.0000
C29  C  1.0000  0.80514  0.80611  0.14322  0.0000
C30  C  1.0000  0.87222  0.73765  0.14327  0.0000
C31  C  1.0000  0.00256  0.00121  0.14215  0.0000
C32  C  1.0000  0.06891  0.93372  0.14231  0.0000
C33  C  1.0000  0.20093  0.99669  0.14240  0.0000
C34  C  1.0000  0.26872  0.92963  0.14287  0.0000
C35  C  1.0000  0.40145  0.99695  0.14317  0.0000
C36  C  1.0000  0.46993  0.93052  0.14341  0.0000
C37  C  1.0000  0.60270  0.00265  0.14327  0.0000
C38  C  1.0000  0.67214  0.93854  0.14316  0.0000
C39  C  1.0000  0.80388  0.00498  0.14264  0.0000
C40  C  1.0000  0.87044  0.93743  0.14254  0.0000
N1  N  1.0000  0.58477  0.39586  0.14405  0.0000
N2  N  1.0000  0.80494  0.61003  0.14385  0.0000
N3  N  1.0000  0.67550  0.74142  0.14390  0.0000
N4  N  1.0000  0.39258  0.39376  0.14327  0.0000
N5  N  1.0000  0.26287  0.52400  0.14328  0.0000
N6  N  1.0000  0.48247  0.73643  0.14384  0.0000
Co1  Co  1.0000  0.44236  0.56658  0.14382  0.0000
Fe1  Fe  1.0000  0.61989  0.56693  0.14453  0.0000
