data_CNCoHf
_audit_creation_method           'pos2cif.pl'
_cell_length_a               12.3170003891
_cell_length_b               12.3170003891315
_cell_length_c               20
_cell_angle_alpha            90
_cell_angle_beta             90
_cell_angle_gamma            120.010002136348
_symmetry_space_group_H-M        'P1'
_symmetry_Int_Tables_number      '1'
_symmetry_cell_setting           'triclinic'
loop_
_symmetry_equiv_pos_as_xyz
x,y,z

loop_
_atom_site_label
_atom_site_type_symbol
_atom_site_occupancy
_atom_site_fract_x
_atom_site_fract_y
_atom_site_fract_z
_atom_site_U_iso_or_equiv
C1  C  1.0000  0.00010  0.20080  0.14239  0.0000
C2  C  1.0000  0.06692  0.13399  0.14084  0.0000
C3  C  1.0000  0.19915  0.19804  0.13883  0.0000
C4  C  1.0000  0.26410  0.12874  0.13687  0.0000
C5  C  1.0000  0.39564  0.19432  0.13521  0.0000
C6  C  1.0000  0.46539  0.13037  0.13652  0.0000
C7  C  1.0000  0.59845  0.20138  0.13818  0.0000
C8  C  1.0000  0.66701  0.13612  0.14071  0.0000
C9  C  1.0000  0.79971  0.20403  0.14271  0.0000
C10  C  1.0000  0.86776  0.13733  0.14336  0.0000
C11  C  1.0000  0.99697  0.40025  0.14434  0.0000
C12  C  1.0000  0.06413  0.33246  0.14296  0.0000
C13  C  1.0000  0.19674  0.39710  0.14186  0.0000
C14  C  1.0000  0.26451  0.32946  0.13944  0.0000
C15  C  1.0000  0.45836  0.32628  0.13454  0.0000
C16  C  1.0000  0.65945  0.33473  0.13997  0.0000
C17  C  1.0000  0.79409  0.40520  0.14470  0.0000
C18  C  1.0000  0.86308  0.33741  0.14398  0.0000
C19  C  1.0000  -0.00058  0.60084  0.14602  0.0000
C20  C  1.0000  0.06613  0.53272  0.14440  0.0000
C21  C  1.0000  0.20172  0.59335  0.14270  0.0000
C22  C  1.0000  0.86371  0.54013  0.14865  0.0000
C23  C  1.0000  0.00401  0.80157  0.14480  0.0000
C24  C  1.0000  0.07074  0.73356  0.14428  0.0000
C25  C  1.0000  0.20506  0.79600  0.14140  0.0000
C26  C  1.0000  0.27409  0.72821  0.14131  0.0000
C27  C  1.0000  0.40998  0.79661  0.14069  0.0000
C28  C  1.0000  0.61086  0.80839  0.14812  0.0000
C29  C  1.0000  0.80701  0.80800  0.15098  0.0000
C30  C  1.0000  0.87146  0.73760  0.15006  0.0000
C31  C  1.0000  0.00383  0.00207  0.14204  0.0000
C32  C  1.0000  0.06890  0.93352  0.14145  0.0000
C33  C  1.0000  0.20107  0.99670  0.13867  0.0000
C34  C  1.0000  0.26873  0.92966  0.13904  0.0000
C35  C  1.0000  0.40159  0.99672  0.13821  0.0000
C36  C  1.0000  0.47034  0.93080  0.14026  0.0000
C37  C  1.0000  0.60313  0.00281  0.14164  0.0000
C38  C  1.0000  0.67280  0.93953  0.14583  0.0000
C39  C  1.0000  0.80504  0.00575  0.14554  0.0000
C40  C  1.0000  0.87216  0.93876  0.14578  0.0000
N1  N  1.0000  0.58699  0.39281  0.13818  0.0000
N2  N  1.0000  0.80235  0.60869  0.15420  0.0000
N3  N  1.0000  0.67773  0.74615  0.15672  0.0000
N4  N  1.0000  0.39601  0.39547  0.13546  0.0000
N5  N  1.0000  0.26198  0.52501  0.14209  0.0000
N6  N  1.0000  0.48357  0.73770  0.14077  0.0000
Co1  Co  1.0000  0.43742  0.56853  0.13409  0.0000
Hf1  Hf  1.0000  0.59765  0.55545  0.18117  0.0000
