data_CNCoHg
_audit_creation_method           'pos2cif.pl'
_cell_length_a               12.3170003891
_cell_length_b               12.3170003891315
_cell_length_c               20
_cell_angle_alpha            90
_cell_angle_beta             90
_cell_angle_gamma            120.010002136348
_symmetry_space_group_H-M        'P1'
_symmetry_Int_Tables_number      '1'
_symmetry_cell_setting           'triclinic'
loop_
_symmetry_equiv_pos_as_xyz
x,y,z

loop_
_atom_site_label
_atom_site_type_symbol
_atom_site_occupancy
_atom_site_fract_x
_atom_site_fract_y
_atom_site_fract_z
_atom_site_U_iso_or_equiv
C1  C  1.0000  0.99837  0.19946  0.14230  0.0000
C2  C  1.0000  0.06468  0.13246  0.14194  0.0000
C3  C  1.0000  0.19629  0.19577  0.14194  0.0000
C4  C  1.0000  0.26233  0.12781  0.14192  0.0000
C5  C  1.0000  0.39316  0.19343  0.14238  0.0000
C6  C  1.0000  0.46449  0.13114  0.14292  0.0000
C7  C  1.0000  0.59753  0.20190  0.14337  0.0000
C8  C  1.0000  0.66624  0.13671  0.14300  0.0000
C9  C  1.0000  0.79886  0.20360  0.14299  0.0000
C10  C  1.0000  0.86626  0.13626  0.14251  0.0000
C11  C  1.0000  0.99685  0.39968  0.14306  0.0000
C12  C  1.0000  0.06283  0.33136  0.14256  0.0000
C13  C  1.0000  0.19458  0.39460  0.14248  0.0000
C14  C  1.0000  0.26088  0.32658  0.14232  0.0000
C15  C  1.0000  0.45249  0.32449  0.14328  0.0000
C16  C  1.0000  0.65869  0.33543  0.14433  0.0000
C17  C  1.0000  0.79462  0.40523  0.14410  0.0000
C18  C  1.0000  0.86285  0.33694  0.14340  0.0000
C19  C  1.0000  0.00480  0.60117  0.14313  0.0000
C20  C  1.0000  0.06933  0.53229  0.14312  0.0000
C21  C  1.0000  0.20424  0.59372  0.14310  0.0000
C22  C  1.0000  0.87061  0.54024  0.14386  0.0000
C23  C  1.0000  0.00698  0.80307  0.14228  0.0000
C24  C  1.0000  0.07283  0.73406  0.14271  0.0000
C25  C  1.0000  0.20608  0.79668  0.14282  0.0000
C26  C  1.0000  0.27430  0.72864  0.14322  0.0000
C27  C  1.0000  0.40874  0.79811  0.14359  0.0000
C28  C  1.0000  0.60724  0.80835  0.14406  0.0000
C29  C  1.0000  0.80724  0.80717  0.14303  0.0000
C30  C  1.0000  0.87533  0.73884  0.14291  0.0000
C31  C  1.0000  0.00259  0.00099  0.14186  0.0000
C32  C  1.0000  0.06940  0.93394  0.14194  0.0000
C33  C  1.0000  0.20090  0.99657  0.14208  0.0000
C34  C  1.0000  0.26889  0.93015  0.14259  0.0000
C35  C  1.0000  0.40132  0.99778  0.14289  0.0000
C36  C  1.0000  0.46968  0.93197  0.14320  0.0000
C37  C  1.0000  0.60213  0.00351  0.14292  0.0000
C38  C  1.0000  0.67103  0.93947  0.14296  0.0000
C39  C  1.0000  0.80338  0.00457  0.14249  0.0000
C40  C  1.0000  0.87112  0.93801  0.14220  0.0000
N1  N  1.0000  0.58028  0.38724  0.14537  0.0000
N2  N  1.0000  0.81561  0.61131  0.14423  0.0000
N3  N  1.0000  0.67687  0.74906  0.14487  0.0000
N4  N  1.0000  0.39002  0.39218  0.14295  0.0000
N5  N  1.0000  0.26312  0.52354  0.14289  0.0000
N6  N  1.0000  0.47953  0.73747  0.14430  0.0000
Co1  Co  1.0000  0.42699  0.56910  0.14382  0.0000
Hg1  Hg  1.0000  0.62444  0.56912  0.14974  0.0000
