data_CNCoIr
_audit_creation_method           'pos2cif.pl'
_cell_length_a               12.3170003891
_cell_length_b               12.3170003891315
_cell_length_c               20
_cell_angle_alpha            90
_cell_angle_beta             90
_cell_angle_gamma            120.010002136348
_symmetry_space_group_H-M        'P1'
_symmetry_Int_Tables_number      '1'
_symmetry_cell_setting           'triclinic'
loop_
_symmetry_equiv_pos_as_xyz
x,y,z

loop_
_atom_site_label
_atom_site_type_symbol
_atom_site_occupancy
_atom_site_fract_x
_atom_site_fract_y
_atom_site_fract_z
_atom_site_U_iso_or_equiv
C1  C  1.0000  0.99876  0.20077  0.14172  0.0000
C2  C  1.0000  0.06567  0.13386  0.14127  0.0000
C3  C  1.0000  0.19744  0.19673  0.14163  0.0000
C4  C  1.0000  0.26270  0.12790  0.14176  0.0000
C5  C  1.0000  0.39380  0.19289  0.14265  0.0000
C6  C  1.0000  0.46407  0.12950  0.14301  0.0000
C7  C  1.0000  0.59683  0.20076  0.14349  0.0000
C8  C  1.0000  0.66593  0.13587  0.14321  0.0000
C9  C  1.0000  0.79870  0.20441  0.14289  0.0000
C10  C  1.0000  0.86686  0.13808  0.14212  0.0000
C11  C  1.0000  0.99599  0.40047  0.14318  0.0000
C12  C  1.0000  0.06261  0.33227  0.14246  0.0000
C13  C  1.0000  0.19490  0.39611  0.14292  0.0000
C14  C  1.0000  0.26284  0.32816  0.14270  0.0000
C15  C  1.0000  0.45416  0.32396  0.14365  0.0000
C16  C  1.0000  0.65695  0.33404  0.14407  0.0000
C17  C  1.0000  0.79287  0.40578  0.14399  0.0000
C18  C  1.0000  0.86177  0.33811  0.14335  0.0000
C19  C  1.0000  0.00008  0.60132  0.14367  0.0000
C20  C  1.0000  0.06650  0.53282  0.14361  0.0000
C21  C  1.0000  0.20194  0.59307  0.14380  0.0000
C22  C  1.0000  0.86454  0.54068  0.14402  0.0000
C23  C  1.0000  0.00563  0.80289  0.14255  0.0000
C24  C  1.0000  0.07126  0.73367  0.14313  0.0000
C25  C  1.0000  0.20541  0.79565  0.14313  0.0000
C26  C  1.0000  0.27407  0.72767  0.14378  0.0000
C27  C  1.0000  0.41008  0.79655  0.14397  0.0000
C28  C  1.0000  0.61149  0.80745  0.14396  0.0000
C29  C  1.0000  0.80721  0.80932  0.14312  0.0000
C30  C  1.0000  0.87418  0.74069  0.14323  0.0000
C31  C  1.0000  0.00341  0.00242  0.14138  0.0000
C32  C  1.0000  0.06923  0.93442  0.14167  0.0000
C33  C  1.0000  0.20073  0.99629  0.14176  0.0000
C34  C  1.0000  0.26844  0.92912  0.14255  0.0000
C35  C  1.0000  0.40101  0.99606  0.14295  0.0000
C36  C  1.0000  0.46983  0.93043  0.14346  0.0000
C37  C  1.0000  0.60278  0.00250  0.14326  0.0000
C38  C  1.0000  0.67287  0.93945  0.14309  0.0000
C39  C  1.0000  0.80442  0.00623  0.14227  0.0000
C40  C  1.0000  0.87176  0.93973  0.14206  0.0000
N1  N  1.0000  0.58246  0.38962  0.14459  0.0000
N2  N  1.0000  0.80690  0.61310  0.14415  0.0000
N3  N  1.0000  0.67833  0.74488  0.14420  0.0000
N4  N  1.0000  0.39201  0.39249  0.14387  0.0000
N5  N  1.0000  0.26160  0.52335  0.14381  0.0000
N6  N  1.0000  0.48301  0.73816  0.14460  0.0000
Co1  Co  1.0000  0.43932  0.56862  0.14508  0.0000
Ir1  Ir  1.0000  0.62369  0.56284  0.14510  0.0000
