data_CNCoMn
_audit_creation_method           'pos2cif.pl'
_cell_length_a               12.3170003891
_cell_length_b               12.3170003891315
_cell_length_c               20
_cell_angle_alpha            90
_cell_angle_beta             90
_cell_angle_gamma            120.010002136348
_symmetry_space_group_H-M        'P1'
_symmetry_Int_Tables_number      '1'
_symmetry_cell_setting           'triclinic'
loop_
_symmetry_equiv_pos_as_xyz
x,y,z

loop_
_atom_site_label
_atom_site_type_symbol
_atom_site_occupancy
_atom_site_fract_x
_atom_site_fract_y
_atom_site_fract_z
_atom_site_U_iso_or_equiv
C1  C  1.0000  0.99855  0.20010  0.14213  0.0000
C2  C  1.0000  0.06549  0.13322  0.14181  0.0000
C3  C  1.0000  0.19760  0.19697  0.14205  0.0000
C4  C  1.0000  0.26349  0.12868  0.14214  0.0000
C5  C  1.0000  0.39484  0.19483  0.14275  0.0000
C6  C  1.0000  0.46459  0.13076  0.14310  0.0000
C7  C  1.0000  0.59744  0.20218  0.14345  0.0000
C8  C  1.0000  0.66595  0.13645  0.14317  0.0000
C9  C  1.0000  0.79866  0.20397  0.14293  0.0000
C10  C  1.0000  0.86656  0.13711  0.14237  0.0000
C11  C  1.0000  0.99601  0.40004  0.14311  0.0000
C12  C  1.0000  0.06256  0.33190  0.14263  0.0000
C13  C  1.0000  0.19489  0.39623  0.14288  0.0000
C14  C  1.0000  0.26289  0.32817  0.14271  0.0000
C15  C  1.0000  0.45649  0.32717  0.14346  0.0000
C16  C  1.0000  0.65754  0.33619  0.14394  0.0000
C17  C  1.0000  0.79325  0.40544  0.14379  0.0000
C18  C  1.0000  0.86178  0.33749  0.14327  0.0000
C19  C  1.0000  0.00098  0.60112  0.14341  0.0000
C20  C  1.0000  0.06674  0.53247  0.14339  0.0000
C21  C  1.0000  0.20195  0.59267  0.14348  0.0000
C22  C  1.0000  0.86563  0.54069  0.14371  0.0000
C23  C  1.0000  0.00528  0.80211  0.14261  0.0000
C24  C  1.0000  0.07150  0.73353  0.14302  0.0000
C25  C  1.0000  0.20588  0.79594  0.14306  0.0000
C26  C  1.0000  0.27428  0.72779  0.14352  0.0000
C27  C  1.0000  0.41004  0.79601  0.14374  0.0000
C28  C  1.0000  0.61038  0.80691  0.14378  0.0000
C29  C  1.0000  0.80587  0.80706  0.14313  0.0000
C30  C  1.0000  0.87294  0.73776  0.14313  0.0000
C31  C  1.0000  0.00309  0.00157  0.14183  0.0000
C32  C  1.0000  0.06923  0.93385  0.14203  0.0000
C33  C  1.0000  0.20110  0.99667  0.14215  0.0000
C34  C  1.0000  0.26880  0.92958  0.14272  0.0000
C35  C  1.0000  0.40142  0.99679  0.14306  0.0000
C36  C  1.0000  0.46982  0.93039  0.14340  0.0000
C37  C  1.0000  0.60263  0.00279  0.14319  0.0000
C38  C  1.0000  0.67214  0.93913  0.14304  0.0000
C39  C  1.0000  0.80386  0.00509  0.14245  0.0000
C40  C  1.0000  0.87117  0.93813  0.14228  0.0000
N1  N  1.0000  0.58455  0.39390  0.14447  0.0000
N2  N  1.0000  0.80665  0.61012  0.14381  0.0000
N3  N  1.0000  0.67694  0.74452  0.14417  0.0000
N4  N  1.0000  0.39248  0.39399  0.14346  0.0000
N5  N  1.0000  0.26153  0.52355  0.14339  0.0000
N6  N  1.0000  0.48252  0.73629  0.14417  0.0000
Co1  Co  1.0000  0.43806  0.56530  0.14428  0.0000
Mn1  Mn  1.0000  0.62100  0.56852  0.14636  0.0000
