data_CNCoMo
_audit_creation_method           'pos2cif.pl'
_cell_length_a               12.3170003891
_cell_length_b               12.3170003891315
_cell_length_c               20
_cell_angle_alpha            90
_cell_angle_beta             90
_cell_angle_gamma            120.010002136348
_symmetry_space_group_H-M        'P1'
_symmetry_Int_Tables_number      '1'
_symmetry_cell_setting           'triclinic'
loop_
_symmetry_equiv_pos_as_xyz
x,y,z

loop_
_atom_site_label
_atom_site_type_symbol
_atom_site_occupancy
_atom_site_fract_x
_atom_site_fract_y
_atom_site_fract_z
_atom_site_U_iso_or_equiv
C1  C  1.0000  0.00038  0.20133  0.14175  0.0000
C2  C  1.0000  0.06685  0.13430  0.14039  0.0000
C3  C  1.0000  0.19892  0.19779  0.13970  0.0000
C4  C  1.0000  0.26360  0.12833  0.13828  0.0000
C5  C  1.0000  0.39498  0.19327  0.13798  0.0000
C6  C  1.0000  0.46483  0.12939  0.13855  0.0000
C7  C  1.0000  0.59813  0.20050  0.13983  0.0000
C8  C  1.0000  0.66707  0.13581  0.14049  0.0000
C9  C  1.0000  0.79979  0.20432  0.14201  0.0000
C10  C  1.0000  0.86810  0.13805  0.14176  0.0000
C11  C  1.0000  0.99729  0.40070  0.14426  0.0000
C12  C  1.0000  0.06465  0.33300  0.14296  0.0000
C13  C  1.0000  0.19708  0.39735  0.14226  0.0000
C14  C  1.0000  0.26464  0.32941  0.14091  0.0000
C15  C  1.0000  0.45663  0.32462  0.13951  0.0000
C16  C  1.0000  0.65915  0.33298  0.14307  0.0000
C17  C  1.0000  0.79412  0.40528  0.14585  0.0000
C18  C  1.0000  0.86330  0.33784  0.14404  0.0000
C19  C  1.0000  -0.00149  0.60076  0.14597  0.0000
C20  C  1.0000  0.06619  0.53294  0.14467  0.0000
C21  C  1.0000  0.20203  0.59381  0.14334  0.0000
C22  C  1.0000  0.86305  0.54005  0.14839  0.0000
C23  C  1.0000  0.00362  0.80172  0.14336  0.0000
C24  C  1.0000  0.07027  0.73354  0.14393  0.0000
C25  C  1.0000  0.20437  0.79561  0.14199  0.0000
C26  C  1.0000  0.27370  0.72798  0.14260  0.0000
C27  C  1.0000  0.40982  0.79651  0.14243  0.0000
C28  C  1.0000  0.61197  0.80900  0.14630  0.0000
C29  C  1.0000  0.80681  0.80870  0.14717  0.0000
C30  C  1.0000  0.87131  0.73889  0.14717  0.0000
C31  C  1.0000  0.00362  0.00238  0.14058  0.0000
C32  C  1.0000  0.06856  0.93365  0.14058  0.0000
C33  C  1.0000  0.20062  0.99623  0.13911  0.0000
C34  C  1.0000  0.26823  0.92919  0.13983  0.0000
C35  C  1.0000  0.40121  0.99620  0.13928  0.0000
C36  C  1.0000  0.47027  0.93047  0.14074  0.0000
C37  C  1.0000  0.60309  0.00253  0.14078  0.0000
C38  C  1.0000  0.67326  0.93986  0.14276  0.0000
C39  C  1.0000  0.80537  0.00654  0.14237  0.0000
C40  C  1.0000  0.87199  0.93947  0.14273  0.0000
N1  N  1.0000  0.58582  0.38982  0.14520  0.0000
N2  N  1.0000  0.80106  0.61022  0.15177  0.0000
N3  N  1.0000  0.67761  0.74551  0.15237  0.0000
N4  N  1.0000  0.39496  0.39359  0.14003  0.0000
N5  N  1.0000  0.26302  0.52537  0.14217  0.0000
N6  N  1.0000  0.48334  0.73817  0.14434  0.0000
Co1  Co  1.0000  0.43964  0.57167  0.14227  0.0000
Mo1  Mo  1.0000  0.60423  0.55652  0.16414  0.0000
