data_CNCoNb
_audit_creation_method           'pos2cif.pl'
_cell_length_a               12.3170003891
_cell_length_b               12.3170003891315
_cell_length_c               20
_cell_angle_alpha            90
_cell_angle_beta             90
_cell_angle_gamma            120.010002136348
_symmetry_space_group_H-M        'P1'
_symmetry_Int_Tables_number      '1'
_symmetry_cell_setting           'triclinic'
loop_
_symmetry_equiv_pos_as_xyz
x,y,z

loop_
_atom_site_label
_atom_site_type_symbol
_atom_site_occupancy
_atom_site_fract_x
_atom_site_fract_y
_atom_site_fract_z
_atom_site_U_iso_or_equiv
C1  C  1.0000  0.00014  0.20088  0.14178  0.0000
C2  C  1.0000  0.06663  0.13386  0.14033  0.0000
C3  C  1.0000  0.19881  0.19775  0.13869  0.0000
C4  C  1.0000  0.26391  0.12864  0.13721  0.0000
C5  C  1.0000  0.39549  0.19411  0.13606  0.0000
C6  C  1.0000  0.46526  0.13020  0.13720  0.0000
C7  C  1.0000  0.59854  0.20150  0.13864  0.0000
C8  C  1.0000  0.66717  0.13614  0.14057  0.0000
C9  C  1.0000  0.79971  0.20405  0.14221  0.0000
C10  C  1.0000  0.86778  0.13733  0.14259  0.0000
C11  C  1.0000  0.99717  0.40047  0.14386  0.0000
C12  C  1.0000  0.06440  0.33262  0.14241  0.0000
C13  C  1.0000  0.19683  0.39703  0.14107  0.0000
C14  C  1.0000  0.26417  0.32914  0.13923  0.0000
C15  C  1.0000  0.45766  0.32591  0.13604  0.0000
C16  C  1.0000  0.65962  0.33456  0.14074  0.0000
C17  C  1.0000  0.79424  0.40529  0.14498  0.0000
C18  C  1.0000  0.86326  0.33754  0.14369  0.0000
C19  C  1.0000  -0.00086  0.60088  0.14596  0.0000
C20  C  1.0000  0.06627  0.53283  0.14413  0.0000
C21  C  1.0000  0.20203  0.59367  0.14244  0.0000
C22  C  1.0000  0.86369  0.54023  0.14882  0.0000
C23  C  1.0000  0.00394  0.80157  0.14417  0.0000
C24  C  1.0000  0.07074  0.73376  0.14421  0.0000
C25  C  1.0000  0.20484  0.79604  0.14181  0.0000
C26  C  1.0000  0.27394  0.72817  0.14200  0.0000
C27  C  1.0000  0.40985  0.79657  0.14198  0.0000
C28  C  1.0000  0.61108  0.80852  0.14772  0.0000
C29  C  1.0000  0.80724  0.80794  0.14976  0.0000
C30  C  1.0000  0.87135  0.73795  0.14916  0.0000
C31  C  1.0000  0.00361  0.00194  0.14140  0.0000
C32  C  1.0000  0.06874  0.93348  0.14098  0.0000
C33  C  1.0000  0.20100  0.99663  0.13878  0.0000
C34  C  1.0000  0.26869  0.92968  0.13947  0.0000
C35  C  1.0000  0.40158  0.99678  0.13873  0.0000
C36  C  1.0000  0.47042  0.93076  0.14074  0.0000
C37  C  1.0000  0.60312  0.00270  0.14136  0.0000
C38  C  1.0000  0.67291  0.93939  0.14459  0.0000
C39  C  1.0000  0.80516  0.00591  0.14437  0.0000
C40  C  1.0000  0.87189  0.93861  0.14478  0.0000
N1  N  1.0000  0.58659  0.39251  0.14036  0.0000
N2  N  1.0000  0.80176  0.60906  0.15434  0.0000
N3  N  1.0000  0.67749  0.74513  0.15566  0.0000
N4  N  1.0000  0.39516  0.39421  0.13647  0.0000
N5  N  1.0000  0.26279  0.52538  0.14063  0.0000
N6  N  1.0000  0.48330  0.73769  0.14340  0.0000
Co1  Co  1.0000  0.43858  0.56922  0.13902  0.0000
Nb1  Nb  1.0000  0.59934  0.55693  0.17740  0.0000
