data_CNCoNi
_audit_creation_method           'pos2cif.pl'
_cell_length_a               12.3170003891
_cell_length_b               12.3170003891315
_cell_length_c               20
_cell_angle_alpha            90
_cell_angle_beta             90
_cell_angle_gamma            120.010002136348
_symmetry_space_group_H-M        'P1'
_symmetry_Int_Tables_number      '1'
_symmetry_cell_setting           'triclinic'
loop_
_symmetry_equiv_pos_as_xyz
x,y,z

loop_
_atom_site_label
_atom_site_type_symbol
_atom_site_occupancy
_atom_site_fract_x
_atom_site_fract_y
_atom_site_fract_z
_atom_site_U_iso_or_equiv
C1  C  1.0000  0.99804  0.19965  0.14237  0.0000
C2  C  1.0000  0.06469  0.13242  0.14223  0.0000
C3  C  1.0000  0.19690  0.19636  0.14243  0.0000
C4  C  1.0000  0.26386  0.12927  0.14259  0.0000
C5  C  1.0000  0.39558  0.19642  0.14307  0.0000
C6  C  1.0000  0.46482  0.13180  0.14319  0.0000
C7  C  1.0000  0.59748  0.20363  0.14342  0.0000
C8  C  1.0000  0.66571  0.13669  0.14322  0.0000
C9  C  1.0000  0.79838  0.20390  0.14298  0.0000
C10  C  1.0000  0.86601  0.13668  0.14261  0.0000
C11  C  1.0000  0.99586  0.40000  0.14292  0.0000
C12  C  1.0000  0.06218  0.33160  0.14259  0.0000
C13  C  1.0000  0.19455  0.39572  0.14283  0.0000
C14  C  1.0000  0.26221  0.32777  0.14292  0.0000
C15  C  1.0000  0.45742  0.32958  0.14358  0.0000
C16  C  1.0000  0.65727  0.33847  0.14371  0.0000
C17  C  1.0000  0.79325  0.40606  0.14354  0.0000
C18  C  1.0000  0.86152  0.33775  0.14313  0.0000
C19  C  1.0000  0.00137  0.60134  0.14322  0.0000
C20  C  1.0000  0.06716  0.53256  0.14310  0.0000
C21  C  1.0000  0.20241  0.59301  0.14323  0.0000
C22  C  1.0000  0.86594  0.54097  0.14349  0.0000
C23  C  1.0000  0.00523  0.80194  0.14287  0.0000
C24  C  1.0000  0.07174  0.73367  0.14303  0.0000
C25  C  1.0000  0.20605  0.79623  0.14304  0.0000
C26  C  1.0000  0.27426  0.72786  0.14335  0.0000
C27  C  1.0000  0.40996  0.79606  0.14361  0.0000
C28  C  1.0000  0.60987  0.80434  0.14363  0.0000
C29  C  1.0000  0.80434  0.80508  0.14321  0.0000
C30  C  1.0000  0.87281  0.73718  0.14324  0.0000
C31  C  1.0000  0.00209  0.00061  0.14236  0.0000
C32  C  1.0000  0.06913  0.93380  0.14249  0.0000
C33  C  1.0000  0.20124  0.99702  0.14254  0.0000
C34  C  1.0000  0.26905  0.92992  0.14287  0.0000
C35  C  1.0000  0.40168  0.99737  0.14309  0.0000
C36  C  1.0000  0.46982  0.93060  0.14335  0.0000
C37  C  1.0000  0.60267  0.00246  0.14325  0.0000
C38  C  1.0000  0.67173  0.93761  0.14316  0.0000
C39  C  1.0000  0.80323  0.00421  0.14275  0.0000
C40  C  1.0000  0.86975  0.93653  0.14270  0.0000
N1  N  1.0000  0.58506  0.39836  0.14398  0.0000
N2  N  1.0000  0.80672  0.61010  0.14362  0.0000
N3  N  1.0000  0.67490  0.73946  0.14369  0.0000
N4  N  1.0000  0.39140  0.39410  0.14373  0.0000
N5  N  1.0000  0.26226  0.52346  0.14326  0.0000
N6  N  1.0000  0.48176  0.73577  0.14408  0.0000
Co1  Co  1.0000  0.43743  0.56464  0.14463  0.0000
Ni1  Ni  1.0000  0.63023  0.57113  0.14403  0.0000
