data_CNCoOs
_audit_creation_method           'pos2cif.pl'
_cell_length_a               12.3170003891
_cell_length_b               12.3170003891315
_cell_length_c               20
_cell_angle_alpha            90
_cell_angle_beta             90
_cell_angle_gamma            120.010002136348
_symmetry_space_group_H-M        'P1'
_symmetry_Int_Tables_number      '1'
_symmetry_cell_setting           'triclinic'
loop_
_symmetry_equiv_pos_as_xyz
x,y,z

loop_
_atom_site_label
_atom_site_type_symbol
_atom_site_occupancy
_atom_site_fract_x
_atom_site_fract_y
_atom_site_fract_z
_atom_site_U_iso_or_equiv
C1  C  1.0000  0.99910  0.20115  0.14193  0.0000
C2  C  1.0000  0.06592  0.13418  0.14148  0.0000
C3  C  1.0000  0.19760  0.19684  0.14187  0.0000
C4  C  1.0000  0.26257  0.12762  0.14192  0.0000
C5  C  1.0000  0.39354  0.19208  0.14264  0.0000
C6  C  1.0000  0.46402  0.12900  0.14301  0.0000
C7  C  1.0000  0.59696  0.20052  0.14338  0.0000
C8  C  1.0000  0.66611  0.13594  0.14309  0.0000
C9  C  1.0000  0.79884  0.20462  0.14286  0.0000
C10  C  1.0000  0.86715  0.13843  0.14221  0.0000
C11  C  1.0000  0.99616  0.40071  0.14323  0.0000
C12  C  1.0000  0.06285  0.33253  0.14264  0.0000
C13  C  1.0000  0.19512  0.39662  0.14296  0.0000
C14  C  1.0000  0.26297  0.32823  0.14274  0.0000
C15  C  1.0000  0.45384  0.32281  0.14354  0.0000
C16  C  1.0000  0.65717  0.33339  0.14406  0.0000
C17  C  1.0000  0.79298  0.40580  0.14399  0.0000
C18  C  1.0000  0.86192  0.33822  0.14333  0.0000
C19  C  1.0000  -0.00054  0.60125  0.14363  0.0000
C20  C  1.0000  0.06607  0.53290  0.14360  0.0000
C21  C  1.0000  0.20158  0.59308  0.14364  0.0000
C22  C  1.0000  0.86427  0.54075  0.14400  0.0000
C23  C  1.0000  0.00547  0.80287  0.14252  0.0000
C24  C  1.0000  0.07114  0.73369  0.14308  0.0000
C25  C  1.0000  0.20525  0.79546  0.14307  0.0000
C26  C  1.0000  0.27409  0.72761  0.14360  0.0000
C27  C  1.0000  0.41026  0.79631  0.14377  0.0000
C28  C  1.0000  0.61177  0.80847  0.14396  0.0000
C29  C  1.0000  0.80777  0.81012  0.14325  0.0000
C30  C  1.0000  0.87409  0.74109  0.14324  0.0000
C31  C  1.0000  0.00370  0.00276  0.14145  0.0000
C32  C  1.0000  0.06918  0.93442  0.14173  0.0000
C33  C  1.0000  0.20061  0.99604  0.14189  0.0000
C34  C  1.0000  0.26834  0.92893  0.14261  0.0000
C35  C  1.0000  0.40099  0.99580  0.14299  0.0000
C36  C  1.0000  0.46997  0.93027  0.14343  0.0000
C37  C  1.0000  0.60286  0.00265  0.14319  0.0000
C38  C  1.0000  0.67318  0.94004  0.14310  0.0000
C39  C  1.0000  0.80481  0.00685  0.14235  0.0000
C40  C  1.0000  0.87217  0.94037  0.14210  0.0000
N1  N  1.0000  0.58240  0.38896  0.14488  0.0000
N2  N  1.0000  0.80578  0.61312  0.14421  0.0000
N3  N  1.0000  0.67870  0.74571  0.14463  0.0000
N4  N  1.0000  0.39214  0.39144  0.14352  0.0000
N5  N  1.0000  0.26116  0.52373  0.14347  0.0000
N6  N  1.0000  0.48376  0.73845  0.14415  0.0000
Co1  Co  1.0000  0.44076  0.56698  0.14377  0.0000
Os1  Os  1.0000  0.62048  0.56235  0.14624  0.0000
