data_CNCoPd
_audit_creation_method           'pos2cif.pl'
_cell_length_a               12.3170003891
_cell_length_b               12.3170003891315
_cell_length_c               20
_cell_angle_alpha            90
_cell_angle_beta             90
_cell_angle_gamma            120.010002136348
_symmetry_space_group_H-M        'P1'
_symmetry_Int_Tables_number      '1'
_symmetry_cell_setting           'triclinic'
loop_
_symmetry_equiv_pos_as_xyz
x,y,z

loop_
_atom_site_label
_atom_site_type_symbol
_atom_site_occupancy
_atom_site_fract_x
_atom_site_fract_y
_atom_site_fract_z
_atom_site_U_iso_or_equiv
C1  C  1.0000  0.99824  0.19993  0.14230  0.0000
C2  C  1.0000  0.06501  0.13289  0.14132  0.0000
C3  C  1.0000  0.19685  0.19619  0.13852  0.0000
C4  C  1.0000  0.26305  0.12824  0.13798  0.0000
C5  C  1.0000  0.39431  0.19431  0.13756  0.0000
C6  C  1.0000  0.46441  0.13071  0.13999  0.0000
C7  C  1.0000  0.59712  0.20203  0.14176  0.0000
C8  C  1.0000  0.66587  0.13654  0.14319  0.0000
C9  C  1.0000  0.79858  0.20410  0.14389  0.0000
C10  C  1.0000  0.86646  0.13736  0.14416  0.0000
C11  C  1.0000  0.99603  0.40002  0.14310  0.0000
C12  C  1.0000  0.06223  0.33168  0.14142  0.0000
C13  C  1.0000  0.19426  0.39533  0.13911  0.0000
C14  C  1.0000  0.26193  0.32736  0.13682  0.0000
C15  C  1.0000  0.45566  0.32666  0.13768  0.0000
C16  C  1.0000  0.65695  0.33603  0.14358  0.0000
C17  C  1.0000  0.79323  0.40558  0.14545  0.0000
C18  C  1.0000  0.86177  0.33776  0.14414  0.0000
C19  C  1.0000  0.00215  0.60124  0.14488  0.0000
C20  C  1.0000  0.06753  0.53252  0.14312  0.0000
C21  C  1.0000  0.20260  0.59290  0.14169  0.0000
C22  C  1.0000  0.86698  0.54076  0.14732  0.0000
C23  C  1.0000  0.00582  0.80248  0.14530  0.0000
C24  C  1.0000  0.07192  0.73366  0.14414  0.0000
C25  C  1.0000  0.20601  0.79601  0.14220  0.0000
C26  C  1.0000  0.27443  0.72784  0.14201  0.0000
C27  C  1.0000  0.40994  0.79628  0.14271  0.0000
C28  C  1.0000  0.61027  0.80718  0.14795  0.0000
C29  C  1.0000  0.80594  0.80762  0.15040  0.0000
C30  C  1.0000  0.87390  0.73846  0.14946  0.0000
C31  C  1.0000  0.00284  0.00146  0.14347  0.0000
C32  C  1.0000  0.06931  0.93398  0.14279  0.0000
C33  C  1.0000  0.20093  0.99645  0.14019  0.0000
C34  C  1.0000  0.26879  0.92948  0.14084  0.0000
C35  C  1.0000  0.40131  0.99669  0.14097  0.0000
C36  C  1.0000  0.46975  0.93064  0.14281  0.0000
C37  C  1.0000  0.60261  0.00300  0.14388  0.0000
C38  C  1.0000  0.67217  0.93955  0.14641  0.0000
C39  C  1.0000  0.80375  0.00526  0.14622  0.0000
C40  C  1.0000  0.87112  0.93842  0.14675  0.0000
N1  N  1.0000  0.58252  0.39167  0.14350  0.0000
N2  N  1.0000  0.81052  0.61143  0.15139  0.0000
N3  N  1.0000  0.67730  0.74647  0.15310  0.0000
N4  N  1.0000  0.39105  0.39311  0.13426  0.0000
N5  N  1.0000  0.26172  0.52307  0.13954  0.0000
N6  N  1.0000  0.48215  0.73664  0.14311  0.0000
Co1  Co  1.0000  0.43432  0.56547  0.13428  0.0000
Pd1  Pd  1.0000  0.62544  0.56868  0.15529  0.0000
