data_CNCoPt
_audit_creation_method           'pos2cif.pl'
_cell_length_a               12.3170003891
_cell_length_b               12.3170003891315
_cell_length_c               20
_cell_angle_alpha            90
_cell_angle_beta             90
_cell_angle_gamma            120.010002136348
_symmetry_space_group_H-M        'P1'
_symmetry_Int_Tables_number      '1'
_symmetry_cell_setting           'triclinic'
loop_
_symmetry_equiv_pos_as_xyz
x,y,z

loop_
_atom_site_label
_atom_site_type_symbol
_atom_site_occupancy
_atom_site_fract_x
_atom_site_fract_y
_atom_site_fract_z
_atom_site_U_iso_or_equiv
C1  C  1.0000  0.99775  0.19988  0.14137  0.0000
C2  C  1.0000  0.06471  0.13296  0.14057  0.0000
C3  C  1.0000  0.19621  0.19567  0.14104  0.0000
C4  C  1.0000  0.26282  0.12813  0.14123  0.0000
C5  C  1.0000  0.39393  0.19397  0.14236  0.0000
C6  C  1.0000  0.46430  0.13056  0.14303  0.0000
C7  C  1.0000  0.59693  0.20240  0.14367  0.0000
C8  C  1.0000  0.66562  0.13659  0.14346  0.0000
C9  C  1.0000  0.79827  0.20427  0.14302  0.0000
C10  C  1.0000  0.86607  0.13744  0.14195  0.0000
C11  C  1.0000  0.99539  0.40000  0.14352  0.0000
C12  C  1.0000  0.06132  0.33141  0.14249  0.0000
C13  C  1.0000  0.19313  0.39493  0.14296  0.0000
C14  C  1.0000  0.26042  0.32652  0.14239  0.0000
C15  C  1.0000  0.45393  0.32561  0.14343  0.0000
C16  C  1.0000  0.65673  0.33650  0.14423  0.0000
C17  C  1.0000  0.79300  0.40614  0.14428  0.0000
C18  C  1.0000  0.86130  0.33795  0.14362  0.0000
C19  C  1.0000  0.00232  0.60157  0.14408  0.0000
C20  C  1.0000  0.06714  0.53251  0.14414  0.0000
C21  C  1.0000  0.20185  0.59264  0.14428  0.0000
C22  C  1.0000  0.86742  0.54122  0.14429  0.0000
C23  C  1.0000  0.00703  0.80315  0.14234  0.0000
C24  C  1.0000  0.07265  0.73392  0.14329  0.0000
C25  C  1.0000  0.20663  0.79603  0.14332  0.0000
C26  C  1.0000  0.27463  0.72749  0.14419  0.0000
C27  C  1.0000  0.41037  0.79567  0.14430  0.0000
C28  C  1.0000  0.61067  0.80688  0.14411  0.0000
C29  C  1.0000  0.80798  0.80914  0.14297  0.0000
C30  C  1.0000  0.87564  0.73991  0.14315  0.0000
C31  C  1.0000  0.00332  0.00187  0.14061  0.0000
C32  C  1.0000  0.06997  0.93449  0.14106  0.0000
C33  C  1.0000  0.20139  0.99655  0.14128  0.0000
C34  C  1.0000  0.26923  0.92949  0.14248  0.0000
C35  C  1.0000  0.40162  0.99658  0.14308  0.0000
C36  C  1.0000  0.46989  0.93014  0.14380  0.0000
C37  C  1.0000  0.60271  0.00289  0.14357  0.0000
C38  C  1.0000  0.67235  0.93931  0.14324  0.0000
C39  C  1.0000  0.80382  0.00546  0.14208  0.0000
C40  C  1.0000  0.87186  0.93936  0.14159  0.0000
N1  N  1.0000  0.58165  0.39229  0.14469  0.0000
N2  N  1.0000  0.81171  0.61281  0.14423  0.0000
N3  N  1.0000  0.67948  0.74705  0.14439  0.0000
N4  N  1.0000  0.38893  0.39137  0.14357  0.0000
N5  N  1.0000  0.26048  0.52253  0.14413  0.0000
N6  N  1.0000  0.48265  0.73586  0.14474  0.0000
Co1  Co  1.0000  0.43291  0.56193  0.14482  0.0000
Pt1  Pt  1.0000  0.62689  0.57007  0.14549  0.0000
