data_CNCoRe
_audit_creation_method           'pos2cif.pl'
_cell_length_a               12.3170003891
_cell_length_b               12.3170003891315
_cell_length_c               20
_cell_angle_alpha            90
_cell_angle_beta             90
_cell_angle_gamma            120.010002136348
_symmetry_space_group_H-M        'P1'
_symmetry_Int_Tables_number      '1'
_symmetry_cell_setting           'triclinic'
loop_
_symmetry_equiv_pos_as_xyz
x,y,z

loop_
_atom_site_label
_atom_site_type_symbol
_atom_site_occupancy
_atom_site_fract_x
_atom_site_fract_y
_atom_site_fract_z
_atom_site_U_iso_or_equiv
C1  C  1.0000  0.00068  0.20209  0.14219  0.0000
C2  C  1.0000  0.06723  0.13499  0.14181  0.0000
C3  C  1.0000  0.19899  0.19783  0.14214  0.0000
C4  C  1.0000  0.26290  0.12762  0.14214  0.0000
C5  C  1.0000  0.39411  0.19155  0.14275  0.0000
C6  C  1.0000  0.46447  0.12822  0.14297  0.0000
C7  C  1.0000  0.59744  0.19937  0.14329  0.0000
C8  C  1.0000  0.66685  0.13540  0.14300  0.0000
C9  C  1.0000  0.79975  0.20469  0.14287  0.0000
C10  C  1.0000  0.86833  0.13887  0.14234  0.0000
C11  C  1.0000  0.99722  0.40109  0.14328  0.0000
C12  C  1.0000  0.06502  0.33370  0.14280  0.0000
C13  C  1.0000  0.19766  0.39784  0.14308  0.0000
C14  C  1.0000  0.26519  0.32984  0.14291  0.0000
C15  C  1.0000  0.45494  0.32175  0.14348  0.0000
C16  C  1.0000  0.65840  0.33186  0.14390  0.0000
C17  C  1.0000  0.79348  0.40550  0.14391  0.0000
C18  C  1.0000  0.86320  0.33829  0.14333  0.0000
C19  C  1.0000  -0.00222  0.60091  0.14370  0.0000
C20  C  1.0000  0.06608  0.53333  0.14360  0.0000
C21  C  1.0000  0.20214  0.59410  0.14359  0.0000
C22  C  1.0000  0.86183  0.53989  0.14406  0.0000
C23  C  1.0000  0.00364  0.80215  0.14271  0.0000
C24  C  1.0000  0.06993  0.73349  0.14319  0.0000
C25  C  1.0000  0.20406  0.79534  0.14309  0.0000
C26  C  1.0000  0.27354  0.72786  0.14350  0.0000
C27  C  1.0000  0.40978  0.79635  0.14356  0.0000
C28  C  1.0000  0.61237  0.80878  0.14365  0.0000
C29  C  1.0000  0.80736  0.80993  0.14318  0.0000
C30  C  1.0000  0.87194  0.74064  0.14331  0.0000
C31  C  1.0000  0.00390  0.00303  0.14176  0.0000
C32  C  1.0000  0.06845  0.93397  0.14199  0.0000
C33  C  1.0000  0.20025  0.99589  0.14208  0.0000
C34  C  1.0000  0.26795  0.92879  0.14265  0.0000
C35  C  1.0000  0.40084  0.99533  0.14291  0.0000
C36  C  1.0000  0.47017  0.93010  0.14323  0.0000
C37  C  1.0000  0.60303  0.00224  0.14302  0.0000
C38  C  1.0000  0.67353  0.93990  0.14295  0.0000
C39  C  1.0000  0.80555  0.00726  0.14241  0.0000
C40  C  1.0000  0.87241  0.94069  0.14226  0.0000
N1  N  1.0000  0.58440  0.38768  0.14447  0.0000
N2  N  1.0000  0.79997  0.61190  0.14424  0.0000
N3  N  1.0000  0.67805  0.74489  0.14417  0.0000
N4  N  1.0000  0.39508  0.39232  0.14358  0.0000
N5  N  1.0000  0.26399  0.52582  0.14352  0.0000
N6  N  1.0000  0.48337  0.73850  0.14390  0.0000
Co1  Co  1.0000  0.44061  0.57321  0.14394  0.0000
Re1  Re  1.0000  0.60916  0.55637  0.14553  0.0000
