data_CNCoRh
_audit_creation_method           'pos2cif.pl'
_cell_length_a               12.3170003891
_cell_length_b               12.3170003891315
_cell_length_c               20
_cell_angle_alpha            90
_cell_angle_beta             90
_cell_angle_gamma            120.010002136348
_symmetry_space_group_H-M        'P1'
_symmetry_Int_Tables_number      '1'
_symmetry_cell_setting           'triclinic'
loop_
_symmetry_equiv_pos_as_xyz
x,y,z

loop_
_atom_site_label
_atom_site_type_symbol
_atom_site_occupancy
_atom_site_fract_x
_atom_site_fract_y
_atom_site_fract_z
_atom_site_U_iso_or_equiv
C1  C  1.0000  0.99898  0.20062  0.14194  0.0000
C2  C  1.0000  0.06578  0.13364  0.14158  0.0000
C3  C  1.0000  0.19782  0.19698  0.14189  0.0000
C4  C  1.0000  0.26309  0.12819  0.14199  0.0000
C5  C  1.0000  0.39436  0.19355  0.14273  0.0000
C6  C  1.0000  0.46436  0.12993  0.14303  0.0000
C7  C  1.0000  0.59713  0.20089  0.14343  0.0000
C8  C  1.0000  0.66616  0.13600  0.14313  0.0000
C9  C  1.0000  0.79897  0.20423  0.14288  0.0000
C10  C  1.0000  0.86704  0.13787  0.14222  0.0000
C11  C  1.0000  0.99639  0.40038  0.14312  0.0000
C12  C  1.0000  0.06305  0.33223  0.14253  0.0000
C13  C  1.0000  0.19539  0.39620  0.14292  0.0000
C14  C  1.0000  0.26375  0.32862  0.14277  0.0000
C15  C  1.0000  0.45568  0.32517  0.14361  0.0000
C16  C  1.0000  0.65734  0.33431  0.14398  0.0000
C17  C  1.0000  0.79333  0.40548  0.14388  0.0000
C18  C  1.0000  0.86215  0.33794  0.14329  0.0000
C19  C  1.0000  0.00032  0.60120  0.14352  0.0000
C20  C  1.0000  0.06675  0.53280  0.14346  0.0000
C21  C  1.0000  0.20210  0.59326  0.14364  0.0000
C22  C  1.0000  0.86477  0.54050  0.14388  0.0000
C23  C  1.0000  0.00486  0.80233  0.14263  0.0000
C24  C  1.0000  0.07094  0.73356  0.14307  0.0000
C25  C  1.0000  0.20521  0.79583  0.14309  0.0000
C26  C  1.0000  0.27390  0.72796  0.14367  0.0000
C27  C  1.0000  0.40981  0.79702  0.14388  0.0000
C28  C  1.0000  0.61114  0.80758  0.14391  0.0000
C29  C  1.0000  0.80554  0.80786  0.14318  0.0000
C30  C  1.0000  0.87285  0.73904  0.14325  0.0000
C31  C  1.0000  0.00302  0.00197  0.14166  0.0000
C32  C  1.0000  0.06888  0.93405  0.14191  0.0000
C33  C  1.0000  0.20061  0.99636  0.14199  0.0000
C34  C  1.0000  0.26834  0.92929  0.14265  0.0000
C35  C  1.0000  0.40099  0.99638  0.14298  0.0000
C36  C  1.0000  0.46976  0.93086  0.14341  0.0000
C37  C  1.0000  0.60279  0.00273  0.14317  0.0000
C38  C  1.0000  0.67273  0.93962  0.14305  0.0000
C39  C  1.0000  0.80425  0.00585  0.14234  0.0000
C40  C  1.0000  0.87111  0.93879  0.14220  0.0000
N1  N  1.0000  0.58361  0.39007  0.14450  0.0000
N2  N  1.0000  0.80660  0.61164  0.14402  0.0000
N3  N  1.0000  0.67674  0.74442  0.14420  0.0000
N4  N  1.0000  0.39320  0.39356  0.14376  0.0000
N5  N  1.0000  0.26181  0.52358  0.14365  0.0000
N6  N  1.0000  0.48248  0.73863  0.14449  0.0000
Co1  Co  1.0000  0.43847  0.56981  0.14477  0.0000
Rh1  Rh  1.0000  0.62272  0.56235  0.14507  0.0000
