data_CNCoRu
_audit_creation_method           'pos2cif.pl'
_cell_length_a               12.3170003891
_cell_length_b               12.3170003891315
_cell_length_c               20
_cell_angle_alpha            90
_cell_angle_beta             90
_cell_angle_gamma            120.010002136348
_symmetry_space_group_H-M        'P1'
_symmetry_Int_Tables_number      '1'
_symmetry_cell_setting           'triclinic'
loop_
_symmetry_equiv_pos_as_xyz
x,y,z

loop_
_atom_site_label
_atom_site_type_symbol
_atom_site_occupancy
_atom_site_fract_x
_atom_site_fract_y
_atom_site_fract_z
_atom_site_U_iso_or_equiv
C1  C  1.0000  0.99930  0.20106  0.14139  0.0000
C2  C  1.0000  0.06599  0.13399  0.14062  0.0000
C3  C  1.0000  0.19794  0.19708  0.14111  0.0000
C4  C  1.0000  0.26289  0.12782  0.14126  0.0000
C5  C  1.0000  0.39397  0.19267  0.14237  0.0000
C6  C  1.0000  0.46418  0.12931  0.14301  0.0000
C7  C  1.0000  0.59709  0.20060  0.14361  0.0000
C8  C  1.0000  0.66625  0.13605  0.14343  0.0000
C9  C  1.0000  0.79908  0.20454  0.14300  0.0000
C10  C  1.0000  0.86733  0.13831  0.14194  0.0000
C11  C  1.0000  0.99647  0.40062  0.14351  0.0000
C12  C  1.0000  0.06324  0.33257  0.14251  0.0000
C13  C  1.0000  0.19562  0.39674  0.14302  0.0000
C14  C  1.0000  0.26371  0.32861  0.14247  0.0000
C15  C  1.0000  0.45512  0.32392  0.14340  0.0000
C16  C  1.0000  0.65727  0.33370  0.14416  0.0000
C17  C  1.0000  0.79316  0.40555  0.14427  0.0000
C18  C  1.0000  0.86217  0.33815  0.14360  0.0000
C19  C  1.0000  -0.00029  0.60113  0.14411  0.0000
C20  C  1.0000  0.06636  0.53286  0.14411  0.0000
C21  C  1.0000  0.20183  0.59314  0.14427  0.0000
C22  C  1.0000  0.86432  0.54060  0.14435  0.0000
C23  C  1.0000  0.00478  0.80243  0.14236  0.0000
C24  C  1.0000  0.07081  0.73355  0.14332  0.0000
C25  C  1.0000  0.20507  0.79551  0.14333  0.0000
C26  C  1.0000  0.27397  0.72779  0.14418  0.0000
C27  C  1.0000  0.41003  0.79658  0.14428  0.0000
C28  C  1.0000  0.61153  0.80856  0.14410  0.0000
C29  C  1.0000  0.80624  0.80885  0.14297  0.0000
C30  C  1.0000  0.87286  0.73961  0.14319  0.0000
C31  C  1.0000  0.00336  0.00239  0.14065  0.0000
C32  C  1.0000  0.06888  0.93407  0.14108  0.0000
C33  C  1.0000  0.20051  0.99604  0.14129  0.0000
C34  C  1.0000  0.26823  0.92895  0.14249  0.0000
C35  C  1.0000  0.40092  0.99596  0.14308  0.0000
C36  C  1.0000  0.46986  0.93052  0.14379  0.0000
C37  C  1.0000  0.60283  0.00283  0.14356  0.0000
C38  C  1.0000  0.67304  0.94022  0.14324  0.0000
C39  C  1.0000  0.80464  0.00651  0.14207  0.0000
C40  C  1.0000  0.87160  0.93958  0.14161  0.0000
N1  N  1.0000  0.58323  0.38933  0.14454  0.0000
N2  N  1.0000  0.80569  0.61200  0.14436  0.0000
N3  N  1.0000  0.67736  0.74551  0.14430  0.0000
N4  N  1.0000  0.39318  0.39258  0.14361  0.0000
N5  N  1.0000  0.26157  0.52389  0.14414  0.0000
N6  N  1.0000  0.48323  0.73858  0.14473  0.0000
Co1  Co  1.0000  0.44125  0.56821  0.14484  0.0000
Ru1  Ru  1.0000  0.61935  0.56208  0.14532  0.0000
