data_CNCoSc
_audit_creation_method           'pos2cif.pl'
_cell_length_a               12.3170003891
_cell_length_b               12.3170003891315
_cell_length_c               20
_cell_angle_alpha            90
_cell_angle_beta             90
_cell_angle_gamma            120.010002136348
_symmetry_space_group_H-M        'P1'
_symmetry_Int_Tables_number      '1'
_symmetry_cell_setting           'triclinic'
loop_
_symmetry_equiv_pos_as_xyz
x,y,z

loop_
_atom_site_label
_atom_site_type_symbol
_atom_site_occupancy
_atom_site_fract_x
_atom_site_fract_y
_atom_site_fract_z
_atom_site_U_iso_or_equiv
C1  C  1.0000  0.00014  0.20036  0.14283  0.0000
C2  C  1.0000  0.06666  0.13342  0.14199  0.0000
C3  C  1.0000  0.19938  0.19833  0.14136  0.0000
C4  C  1.0000  0.26430  0.12921  0.13967  0.0000
C5  C  1.0000  0.39603  0.19568  0.13836  0.0000
C6  C  1.0000  0.46543  0.13139  0.13872  0.0000
C7  C  1.0000  0.59855  0.20150  0.13954  0.0000
C8  C  1.0000  0.66711  0.13623  0.14040  0.0000
C9  C  1.0000  0.79993  0.20360  0.14220  0.0000
C10  C  1.0000  0.86769  0.13667  0.14209  0.0000
C11  C  1.0000  0.99767  0.40002  0.14494  0.0000
C12  C  1.0000  0.06470  0.33222  0.14410  0.0000
C13  C  1.0000  0.19740  0.39685  0.14379  0.0000
C14  C  1.0000  0.26567  0.33016  0.14191  0.0000
C15  C  1.0000  0.45966  0.32820  0.13772  0.0000
C16  C  1.0000  0.65977  0.33477  0.14155  0.0000
C17  C  1.0000  0.79479  0.40466  0.14559  0.0000
C18  C  1.0000  0.86370  0.33700  0.14442  0.0000
C19  C  1.0000  0.00052  0.60065  0.14597  0.0000
C20  C  1.0000  0.06734  0.53267  0.14481  0.0000
C21  C  1.0000  0.20299  0.59380  0.14370  0.0000
C22  C  1.0000  0.86497  0.53953  0.14882  0.0000
C23  C  1.0000  0.00302  0.80094  0.14404  0.0000
C24  C  1.0000  0.07039  0.73341  0.14452  0.0000
C25  C  1.0000  0.20457  0.79630  0.14234  0.0000
C26  C  1.0000  0.27359  0.72872  0.14212  0.0000
C27  C  1.0000  0.40898  0.79829  0.14047  0.0000
C28  C  1.0000  0.60946  0.80797  0.14214  0.0000
C29  C  1.0000  0.80323  0.80445  0.14466  0.0000
C30  C  1.0000  0.86985  0.73570  0.14739  0.0000
C31  C  1.0000  0.00257  0.00093  0.14176  0.0000
C32  C  1.0000  0.06815  0.93299  0.14172  0.0000
C33  C  1.0000  0.20070  0.99693  0.14048  0.0000
C34  C  1.0000  0.26837  0.93009  0.14057  0.0000
C35  C  1.0000  0.40126  0.99778  0.13960  0.0000
C36  C  1.0000  0.46989  0.93210  0.13999  0.0000
C37  C  1.0000  0.60276  0.00304  0.14000  0.0000
C38  C  1.0000  0.67218  0.93931  0.14118  0.0000
C39  C  1.0000  0.80430  0.00476  0.14175  0.0000
C40  C  1.0000  0.87021  0.93650  0.14224  0.0000
N1  N  1.0000  0.58800  0.39310  0.14059  0.0000
N2  N  1.0000  0.80331  0.60717  0.15378  0.0000
N3  N  1.0000  0.67266  0.74189  0.14666  0.0000
N4  N  1.0000  0.39759  0.39788  0.13824  0.0000
N5  N  1.0000  0.26348  0.52497  0.14396  0.0000
N6  N  1.0000  0.48142  0.73969  0.13940  0.0000
Co1  Co  1.0000  0.43773  0.57317  0.13494  0.0000
Sc1  Sc  1.0000  0.60496  0.55615  0.18291  0.0000
