data_CNCoTa
_audit_creation_method           'pos2cif.pl'
_cell_length_a               12.3170003891
_cell_length_b               12.3170003891315
_cell_length_c               20
_cell_angle_alpha            90
_cell_angle_beta             90
_cell_angle_gamma            120.010002136348
_symmetry_space_group_H-M        'P1'
_symmetry_Int_Tables_number      '1'
_symmetry_cell_setting           'triclinic'
loop_
_symmetry_equiv_pos_as_xyz
x,y,z

loop_
_atom_site_label
_atom_site_type_symbol
_atom_site_occupancy
_atom_site_fract_x
_atom_site_fract_y
_atom_site_fract_z
_atom_site_U_iso_or_equiv
C1  C  1.0000  0.00027  0.20100  0.14270  0.0000
C2  C  1.0000  0.06689  0.13413  0.14111  0.0000
C3  C  1.0000  0.19898  0.19797  0.13871  0.0000
C4  C  1.0000  0.26395  0.12864  0.13689  0.0000
C5  C  1.0000  0.39547  0.19392  0.13545  0.0000
C6  C  1.0000  0.46524  0.13001  0.13683  0.0000
C7  C  1.0000  0.59858  0.20142  0.13842  0.0000
C8  C  1.0000  0.66717  0.13600  0.14095  0.0000
C9  C  1.0000  0.79967  0.20407  0.14302  0.0000
C10  C  1.0000  0.86784  0.13738  0.14396  0.0000
C11  C  1.0000  0.99704  0.40049  0.14407  0.0000
C12  C  1.0000  0.06435  0.33266  0.14278  0.0000
C13  C  1.0000  0.19673  0.39712  0.14086  0.0000
C14  C  1.0000  0.26404  0.32926  0.13872  0.0000
C15  C  1.0000  0.45739  0.32561  0.13500  0.0000
C16  C  1.0000  0.65964  0.33433  0.14038  0.0000
C17  C  1.0000  0.79410  0.40539  0.14480  0.0000
C18  C  1.0000  0.86319  0.33755  0.14398  0.0000
C19  C  1.0000  -0.00151  0.60080  0.14609  0.0000
C20  C  1.0000  0.06582  0.53279  0.14409  0.0000
C21  C  1.0000  0.20167  0.59359  0.14191  0.0000
C22  C  1.0000  0.86305  0.54016  0.14869  0.0000
C23  C  1.0000  0.00409  0.80174  0.14504  0.0000
C24  C  1.0000  0.07069  0.73374  0.14439  0.0000
C25  C  1.0000  0.20471  0.79587  0.14155  0.0000
C26  C  1.0000  0.27389  0.72804  0.14127  0.0000
C27  C  1.0000  0.40987  0.79629  0.14123  0.0000
C28  C  1.0000  0.61094  0.80813  0.14867  0.0000
C29  C  1.0000  0.80829  0.80877  0.15139  0.0000
C30  C  1.0000  0.87177  0.73874  0.14999  0.0000
C31  C  1.0000  0.00395  0.00227  0.14268  0.0000
C32  C  1.0000  0.06890  0.93366  0.14189  0.0000
C33  C  1.0000  0.20107  0.99663  0.13886  0.0000
C34  C  1.0000  0.26867  0.92956  0.13923  0.0000
C35  C  1.0000  0.40157  0.99661  0.13840  0.0000
C36  C  1.0000  0.47046  0.93050  0.14053  0.0000
C37  C  1.0000  0.60312  0.00244  0.14184  0.0000
C38  C  1.0000  0.67288  0.93908  0.14596  0.0000
C39  C  1.0000  0.80529  0.00609  0.14617  0.0000
C40  C  1.0000  0.87235  0.93916  0.14658  0.0000
N1  N  1.0000  0.58650  0.39257  0.13991  0.0000
N2  N  1.0000  0.80055  0.60929  0.15398  0.0000
N3  N  1.0000  0.67822  0.74496  0.15759  0.0000
N4  N  1.0000  0.39528  0.39424  0.13457  0.0000
N5  N  1.0000  0.26234  0.52537  0.13974  0.0000
N6  N  1.0000  0.48363  0.73731  0.14236  0.0000
Co1  Co  1.0000  0.43832  0.56849  0.13485  0.0000
Ta1  Ta  1.0000  0.60011  0.55730  0.17386  0.0000
