data_CNCoTc
_audit_creation_method           'pos2cif.pl'
_cell_length_a               12.3170003891
_cell_length_b               12.3170003891315
_cell_length_c               20
_cell_angle_alpha            90
_cell_angle_beta             90
_cell_angle_gamma            120.010002136348
_symmetry_space_group_H-M        'P1'
_symmetry_Int_Tables_number      '1'
_symmetry_cell_setting           'triclinic'
loop_
_symmetry_equiv_pos_as_xyz
x,y,z

loop_
_atom_site_label
_atom_site_type_symbol
_atom_site_occupancy
_atom_site_fract_x
_atom_site_fract_y
_atom_site_fract_z
_atom_site_U_iso_or_equiv
C1  C  1.0000  0.00049  0.20176  0.14260  0.0000
C2  C  1.0000  0.06682  0.13444  0.14249  0.0000
C3  C  1.0000  0.19873  0.19753  0.14268  0.0000
C4  C  1.0000  0.26299  0.12775  0.14267  0.0000
C5  C  1.0000  0.39421  0.19217  0.14300  0.0000
C6  C  1.0000  0.46450  0.12884  0.14304  0.0000
C7  C  1.0000  0.59753  0.19982  0.14321  0.0000
C8  C  1.0000  0.66690  0.13578  0.14294  0.0000
C9  C  1.0000  0.79979  0.20459  0.14288  0.0000
C10  C  1.0000  0.86819  0.13860  0.14264  0.0000
C11  C  1.0000  0.99746  0.40100  0.14308  0.0000
C12  C  1.0000  0.06493  0.33344  0.14286  0.0000
C13  C  1.0000  0.19762  0.39758  0.14306  0.0000
C14  C  1.0000  0.26512  0.32952  0.14309  0.0000
C15  C  1.0000  0.45566  0.32299  0.14354  0.0000
C16  C  1.0000  0.65838  0.33242  0.14369  0.0000
C17  C  1.0000  0.79380  0.40534  0.14360  0.0000
C18  C  1.0000  0.86324  0.33826  0.14317  0.0000
C19  C  1.0000  -0.00116  0.60094  0.14335  0.0000
C20  C  1.0000  0.06681  0.53321  0.14323  0.0000
C21  C  1.0000  0.20281  0.59407  0.14325  0.0000
C22  C  1.0000  0.86294  0.54018  0.14365  0.0000
C23  C  1.0000  0.00357  0.80183  0.14296  0.0000
C24  C  1.0000  0.07015  0.73345  0.14310  0.0000
C25  C  1.0000  0.20443  0.79559  0.14300  0.0000
C26  C  1.0000  0.27378  0.72815  0.14321  0.0000
C27  C  1.0000  0.40970  0.79686  0.14327  0.0000
C28  C  1.0000  0.61189  0.80902  0.14342  0.0000
C29  C  1.0000  0.80589  0.80867  0.14331  0.0000
C30  C  1.0000  0.87136  0.73920  0.14336  0.0000
C31  C  1.0000  0.00341  0.00243  0.14250  0.0000
C32  C  1.0000  0.06832  0.93369  0.14261  0.0000
C33  C  1.0000  0.20022  0.99592  0.14260  0.0000
C34  C  1.0000  0.26803  0.92900  0.14281  0.0000
C35  C  1.0000  0.40090  0.99580  0.14292  0.0000
C36  C  1.0000  0.47011  0.93062  0.14303  0.0000
C37  C  1.0000  0.60305  0.00274  0.14291  0.0000
C38  C  1.0000  0.67332  0.94033  0.14292  0.0000
C39  C  1.0000  0.80519  0.00687  0.14269  0.0000
C40  C  1.0000  0.87167  0.93962  0.14273  0.0000
N1  N  1.0000  0.58451  0.38787  0.14419  0.0000
N2  N  1.0000  0.80186  0.61101  0.14386  0.0000
N3  N  1.0000  0.67654  0.74495  0.14385  0.0000
N4  N  1.0000  0.39473  0.39293  0.14356  0.0000
N5  N  1.0000  0.26443  0.52558  0.14331  0.0000
N6  N  1.0000  0.48295  0.73884  0.14357  0.0000
Co1  Co  1.0000  0.44055  0.57350  0.14378  0.0000
Tc1  Tc  1.0000  0.60870  0.55646  0.14474  0.0000
