data_CNCoTi
_audit_creation_method           'pos2cif.pl'
_cell_length_a               12.3170003891
_cell_length_b               12.3170003891315
_cell_length_c               20
_cell_angle_alpha            90
_cell_angle_beta             90
_cell_angle_gamma            120.010002136348
_symmetry_space_group_H-M        'P1'
_symmetry_Int_Tables_number      '1'
_symmetry_cell_setting           'triclinic'
loop_
_symmetry_equiv_pos_as_xyz
x,y,z

loop_
_atom_site_label
_atom_site_type_symbol
_atom_site_occupancy
_atom_site_fract_x
_atom_site_fract_y
_atom_site_fract_z
_atom_site_U_iso_or_equiv
C1  C  1.0000  -0.00015  0.20080  0.14217  0.0000
C2  C  1.0000  0.06655  0.13380  0.14103  0.0000
C3  C  1.0000  0.19868  0.19762  0.14008  0.0000
C4  C  1.0000  0.26390  0.12859  0.13876  0.0000
C5  C  1.0000  0.39538  0.19403  0.13831  0.0000
C6  C  1.0000  0.46506  0.13014  0.13916  0.0000
C7  C  1.0000  0.59814  0.20172  0.14050  0.0000
C8  C  1.0000  0.66675  0.13640  0.14144  0.0000
C9  C  1.0000  0.79946  0.20411  0.14262  0.0000
C10  C  1.0000  0.86761  0.13746  0.14260  0.0000
C11  C  1.0000  0.99672  0.40027  0.14393  0.0000
C12  C  1.0000  0.06387  0.33246  0.14300  0.0000
C13  C  1.0000  0.19659  0.39735  0.14274  0.0000
C14  C  1.0000  0.26436  0.32911  0.14101  0.0000
C15  C  1.0000  0.45777  0.32604  0.13897  0.0000
C16  C  1.0000  0.65867  0.33519  0.14242  0.0000
C17  C  1.0000  0.79364  0.40523  0.14480  0.0000
C18  C  1.0000  0.86262  0.33754  0.14381  0.0000
C19  C  1.0000  -0.00058  0.60088  0.14465  0.0000
C20  C  1.0000  0.06605  0.53267  0.14389  0.0000
C21  C  1.0000  0.20158  0.59299  0.14324  0.0000
C22  C  1.0000  0.86376  0.54057  0.14679  0.0000
C23  C  1.0000  0.00406  0.80151  0.14316  0.0000
C24  C  1.0000  0.07073  0.73351  0.14320  0.0000
C25  C  1.0000  0.20517  0.79584  0.14157  0.0000
C26  C  1.0000  0.27409  0.72795  0.14205  0.0000
C27  C  1.0000  0.41005  0.79603  0.14145  0.0000
C28  C  1.0000  0.61131  0.80869  0.14580  0.0000
C29  C  1.0000  0.80651  0.80759  0.14741  0.0000
C30  C  1.0000  0.87133  0.73727  0.14679  0.0000
C31  C  1.0000  0.00363  0.00191  0.14142  0.0000
C32  C  1.0000  0.06888  0.93349  0.14102  0.0000
C33  C  1.0000  0.20099  0.99648  0.13953  0.0000
C34  C  1.0000  0.26868  0.92946  0.13994  0.0000
C35  C  1.0000  0.40149  0.99646  0.13972  0.0000
C36  C  1.0000  0.47021  0.93041  0.14088  0.0000
C37  C  1.0000  0.60302  0.00293  0.14160  0.0000
C38  C  1.0000  0.67292  0.93996  0.14388  0.0000
C39  C  1.0000  0.80490  0.00586  0.14370  0.0000
C40  C  1.0000  0.87177  0.93847  0.14378  0.0000
N1  N  1.0000  0.58618  0.39337  0.14279  0.0000
N2  N  1.0000  0.80264  0.60894  0.15021  0.0000
N3  N  1.0000  0.67728  0.74568  0.15167  0.0000
N4  N  1.0000  0.39464  0.39344  0.13935  0.0000
N5  N  1.0000  0.26181  0.52481  0.14344  0.0000
N6  N  1.0000  0.48378  0.73732  0.14191  0.0000
Co1  Co  1.0000  0.44377  0.56728  0.14073  0.0000
Ti1  Ti  1.0000  0.60074  0.56153  0.16904  0.0000
