data_CNCoV
_audit_creation_method           'pos2cif.pl'
_cell_length_a               12.3170003891
_cell_length_b               12.3170003891315
_cell_length_c               20
_cell_angle_alpha            90
_cell_angle_beta             90
_cell_angle_gamma            120.010002136348
_symmetry_space_group_H-M        'P1'
_symmetry_Int_Tables_number      '1'
_symmetry_cell_setting           'triclinic'
loop_
_symmetry_equiv_pos_as_xyz
x,y,z

loop_
_atom_site_label
_atom_site_type_symbol
_atom_site_occupancy
_atom_site_fract_x
_atom_site_fract_y
_atom_site_fract_z
_atom_site_U_iso_or_equiv
C1  C  1.0000  -0.00011  0.20098  0.14251  0.0000
C2  C  1.0000  0.06666  0.13413  0.14240  0.0000
C3  C  1.0000  0.19887  0.19796  0.14265  0.0000
C4  C  1.0000  0.26370  0.12863  0.14263  0.0000
C5  C  1.0000  0.39510  0.19380  0.14288  0.0000
C6  C  1.0000  0.46477  0.12984  0.14305  0.0000
C7  C  1.0000  0.59791  0.20089  0.14309  0.0000
C8  C  1.0000  0.66672  0.13596  0.14289  0.0000
C9  C  1.0000  0.79948  0.20410  0.14280  0.0000
C10  C  1.0000  0.86770  0.13775  0.14252  0.0000
C11  C  1.0000  0.99687  0.40042  0.14307  0.0000
C12  C  1.0000  0.06399  0.33260  0.14287  0.0000
C13  C  1.0000  0.19654  0.39731  0.14309  0.0000
C14  C  1.0000  0.26475  0.32959  0.14299  0.0000
C15  C  1.0000  0.45733  0.32557  0.14316  0.0000
C16  C  1.0000  0.65863  0.33386  0.14354  0.0000
C17  C  1.0000  0.79379  0.40510  0.14354  0.0000
C18  C  1.0000  0.86281  0.33762  0.14310  0.0000
C19  C  1.0000  -0.00108  0.60079  0.14327  0.0000
C20  C  1.0000  0.06605  0.53279  0.14321  0.0000
C21  C  1.0000  0.20148  0.59326  0.14327  0.0000
C22  C  1.0000  0.86343  0.54022  0.14363  0.0000
C23  C  1.0000  0.00379  0.80170  0.14283  0.0000
C24  C  1.0000  0.07033  0.73346  0.14306  0.0000
C25  C  1.0000  0.20470  0.79576  0.14305  0.0000
C26  C  1.0000  0.27368  0.72796  0.14325  0.0000
C27  C  1.0000  0.40971  0.79650  0.14329  0.0000
C28  C  1.0000  0.61161  0.80847  0.14354  0.0000
C29  C  1.0000  0.80595  0.80769  0.14331  0.0000
C30  C  1.0000  0.87124  0.73789  0.14327  0.0000
C31  C  1.0000  0.00355  0.00222  0.14233  0.0000
C32  C  1.0000  0.06867  0.93372  0.14250  0.0000
C33  C  1.0000  0.20071  0.99651  0.14260  0.0000
C34  C  1.0000  0.26831  0.92940  0.14290  0.0000
C35  C  1.0000  0.40114  0.99639  0.14307  0.0000
C36  C  1.0000  0.46995  0.93053  0.14319  0.0000
C37  C  1.0000  0.60292  0.00266  0.14296  0.0000
C38  C  1.0000  0.67302  0.93991  0.14298  0.0000
C39  C  1.0000  0.80492  0.00606  0.14264  0.0000
C40  C  1.0000  0.87164  0.93881  0.14257  0.0000
N1  N  1.0000  0.58618  0.39159  0.14415  0.0000
N2  N  1.0000  0.80209  0.60945  0.14397  0.0000
N3  N  1.0000  0.67663  0.74448  0.14438  0.0000
N4  N  1.0000  0.39516  0.39404  0.14302  0.0000
N5  N  1.0000  0.26180  0.52477  0.14332  0.0000
N6  N  1.0000  0.48327  0.73817  0.14331  0.0000
Co1  Co  1.0000  0.44254  0.57014  0.14273  0.0000
V1  V  1.0000  0.60813  0.55970  0.14759  0.0000
