data_CNCoW
_audit_creation_method           'pos2cif.pl'
_cell_length_a               12.3170003891
_cell_length_b               12.3170003891315
_cell_length_c               20
_cell_angle_alpha            90
_cell_angle_beta             90
_cell_angle_gamma            120.010002136348
_symmetry_space_group_H-M        'P1'
_symmetry_Int_Tables_number      '1'
_symmetry_cell_setting           'triclinic'
loop_
_symmetry_equiv_pos_as_xyz
x,y,z

loop_
_atom_site_label
_atom_site_type_symbol
_atom_site_occupancy
_atom_site_fract_x
_atom_site_fract_y
_atom_site_fract_z
_atom_site_U_iso_or_equiv
C1  C  1.0000  0.00036  0.20149  0.14193  0.0000
C2  C  1.0000  0.06698  0.13459  0.14053  0.0000
C3  C  1.0000  0.19891  0.19792  0.13948  0.0000
C4  C  1.0000  0.26352  0.12826  0.13823  0.0000
C5  C  1.0000  0.39475  0.19276  0.13786  0.0000
C6  C  1.0000  0.46471  0.12898  0.13881  0.0000
C7  C  1.0000  0.59808  0.20051  0.14002  0.0000
C8  C  1.0000  0.66696  0.13561  0.14113  0.0000
C9  C  1.0000  0.79963  0.20437  0.14244  0.0000
C10  C  1.0000  0.86810  0.13815  0.14247  0.0000
C11  C  1.0000  0.99697  0.40076  0.14394  0.0000
C12  C  1.0000  0.06440  0.33303  0.14273  0.0000
C13  C  1.0000  0.19671  0.39741  0.14169  0.0000
C14  C  1.0000  0.26421  0.32933  0.14030  0.0000
C15  C  1.0000  0.45591  0.32384  0.13871  0.0000
C16  C  1.0000  0.65898  0.33287  0.14256  0.0000
C17  C  1.0000  0.79374  0.40544  0.14531  0.0000
C18  C  1.0000  0.86300  0.33788  0.14385  0.0000
C19  C  1.0000  -0.00220  0.60080  0.14577  0.0000
C20  C  1.0000  0.06559  0.53291  0.14428  0.0000
C21  C  1.0000  0.20152  0.59362  0.14284  0.0000
C22  C  1.0000  0.86250  0.54011  0.14801  0.0000
C23  C  1.0000  0.00407  0.80206  0.14364  0.0000
C24  C  1.0000  0.07042  0.73371  0.14397  0.0000
C25  C  1.0000  0.20445  0.79548  0.14208  0.0000
C26  C  1.0000  0.27379  0.72774  0.14243  0.0000
C27  C  1.0000  0.40990  0.79601  0.14251  0.0000
C28  C  1.0000  0.61215  0.80867  0.14715  0.0000
C29  C  1.0000  0.80848  0.80980  0.14802  0.0000
C30  C  1.0000  0.87208  0.73991  0.14740  0.0000
C31  C  1.0000  0.00405  0.00284  0.14107  0.0000
C32  C  1.0000  0.06880  0.93389  0.14093  0.0000
C33  C  1.0000  0.20071  0.99621  0.13932  0.0000
C34  C  1.0000  0.26832  0.92907  0.14010  0.0000
C35  C  1.0000  0.40132  0.99595  0.13973  0.0000
C36  C  1.0000  0.47040  0.93004  0.14136  0.0000
C37  C  1.0000  0.60309  0.00217  0.14174  0.0000
C38  C  1.0000  0.67342  0.93948  0.14413  0.0000
C39  C  1.0000  0.80565  0.00683  0.14366  0.0000
C40  C  1.0000  0.87265  0.94023  0.14375  0.0000
N1  N  1.0000  0.58533  0.39010  0.14427  0.0000
N2  N  1.0000  0.80028  0.61101  0.15154  0.0000
N3  N  1.0000  0.67907  0.74533  0.15345  0.0000
N4  N  1.0000  0.39467  0.39292  0.13865  0.0000
N5  N  1.0000  0.26230  0.52522  0.14129  0.0000
N6  N  1.0000  0.48388  0.73761  0.14405  0.0000
Co1  Co  1.0000  0.44014  0.57047  0.14011  0.0000
W1  W  1.0000  0.60429  0.55779  0.16271  0.0000
