data_CNCoY
_audit_creation_method           'pos2cif.pl'
_cell_length_a               12.3170003891
_cell_length_b               12.3170003891315
_cell_length_c               20
_cell_angle_alpha            90
_cell_angle_beta             90
_cell_angle_gamma            120.010002136348
_symmetry_space_group_H-M        'P1'
_symmetry_Int_Tables_number      '1'
_symmetry_cell_setting           'triclinic'
loop_
_symmetry_equiv_pos_as_xyz
x,y,z

loop_
_atom_site_label
_atom_site_type_symbol
_atom_site_occupancy
_atom_site_fract_x
_atom_site_fract_y
_atom_site_fract_z
_atom_site_U_iso_or_equiv
C1  C  1.0000  0.00001  0.20018  0.14198  0.0000
C2  C  1.0000  0.06652  0.13329  0.14070  0.0000
C3  C  1.0000  0.19919  0.19825  0.14000  0.0000
C4  C  1.0000  0.26428  0.12926  0.13782  0.0000
C5  C  1.0000  0.39607  0.19584  0.13675  0.0000
C6  C  1.0000  0.46552  0.13158  0.13720  0.0000
C7  C  1.0000  0.59866  0.20158  0.13860  0.0000
C8  C  1.0000  0.66714  0.13628  0.13944  0.0000
C9  C  1.0000  0.79991  0.20352  0.14158  0.0000
C10  C  1.0000  0.86758  0.13654  0.14129  0.0000
C11  C  1.0000  0.99766  0.39991  0.14468  0.0000
C12  C  1.0000  0.06452  0.33201  0.14349  0.0000
C13  C  1.0000  0.19710  0.39663  0.14332  0.0000
C14  C  1.0000  0.26527  0.32993  0.14143  0.0000
C15  C  1.0000  0.45986  0.32849  0.13757  0.0000
C16  C  1.0000  0.65990  0.33475  0.14186  0.0000
C17  C  1.0000  0.79504  0.40459  0.14615  0.0000
C18  C  1.0000  0.86379  0.33690  0.14426  0.0000
C19  C  1.0000  0.00092  0.60065  0.14607  0.0000
C20  C  1.0000  0.06746  0.53261  0.14478  0.0000
C21  C  1.0000  0.20289  0.59379  0.14370  0.0000
C22  C  1.0000  0.86573  0.53942  0.14968  0.0000
C23  C  1.0000  0.00315  0.80098  0.14367  0.0000
C24  C  1.0000  0.07055  0.73348  0.14421  0.0000
C25  C  1.0000  0.20461  0.79643  0.14166  0.0000
C26  C  1.0000  0.27357  0.72879  0.14193  0.0000
C27  C  1.0000  0.40891  0.79849  0.14034  0.0000
C28  C  1.0000  0.60931  0.80825  0.14260  0.0000
C29  C  1.0000  0.80314  0.80431  0.14526  0.0000
C30  C  1.0000  0.86999  0.73560  0.14817  0.0000
C31  C  1.0000  0.00247  0.00081  0.14055  0.0000
C32  C  1.0000  0.06814  0.93291  0.14048  0.0000
C33  C  1.0000  0.20073  0.99700  0.13875  0.0000
C34  C  1.0000  0.26843  0.93021  0.13921  0.0000
C35  C  1.0000  0.40130  0.99792  0.13819  0.0000
C36  C  1.0000  0.46990  0.93227  0.13916  0.0000
C37  C  1.0000  0.60277  0.00317  0.13909  0.0000
C38  C  1.0000  0.67209  0.93944  0.14066  0.0000
C39  C  1.0000  0.80421  0.00467  0.14105  0.0000
C40  C  1.0000  0.87018  0.93642  0.14169  0.0000
N1  N  1.0000  0.58802  0.39308  0.14199  0.0000
N2  N  1.0000  0.80460  0.60720  0.15582  0.0000
N3  N  1.0000  0.67256  0.74244  0.14839  0.0000
N4  N  1.0000  0.39748  0.39793  0.13888  0.0000
N5  N  1.0000  0.26314  0.52487  0.14391  0.0000
N6  N  1.0000  0.48131  0.73981  0.14000  0.0000
Co1  Co  1.0000  0.43632  0.57277  0.13545  0.0000
Y1  Y  1.0000  0.60513  0.55592  0.19850  0.0000
