data_CNCoZn
_audit_creation_method           'pos2cif.pl'
_cell_length_a               12.3170003891
_cell_length_b               12.3170003891315
_cell_length_c               20
_cell_angle_alpha            90
_cell_angle_beta             90
_cell_angle_gamma            120.010002136348
_symmetry_space_group_H-M        'P1'
_symmetry_Int_Tables_number      '1'
_symmetry_cell_setting           'triclinic'
loop_
_symmetry_equiv_pos_as_xyz
x,y,z

loop_
_atom_site_label
_atom_site_type_symbol
_atom_site_occupancy
_atom_site_fract_x
_atom_site_fract_y
_atom_site_fract_z
_atom_site_U_iso_or_equiv
C1  C  1.0000  0.99846  0.19967  0.14191  0.0000
C2  C  1.0000  0.06517  0.13293  0.14146  0.0000
C3  C  1.0000  0.19736  0.19703  0.14173  0.0000
C4  C  1.0000  0.26332  0.12888  0.14183  0.0000
C5  C  1.0000  0.39475  0.19505  0.14255  0.0000
C6  C  1.0000  0.46466  0.13129  0.14301  0.0000
C7  C  1.0000  0.59756  0.20157  0.14346  0.0000
C8  C  1.0000  0.66614  0.13606  0.14326  0.0000
C9  C  1.0000  0.79883  0.20354  0.14297  0.0000
C10  C  1.0000  0.86639  0.13644  0.14224  0.0000
C11  C  1.0000  0.99630  0.39977  0.14321  0.0000
C12  C  1.0000  0.06270  0.33145  0.14256  0.0000
C13  C  1.0000  0.19478  0.39549  0.14287  0.0000
C14  C  1.0000  0.26299  0.32850  0.14258  0.0000
C15  C  1.0000  0.45653  0.32711  0.14336  0.0000
C16  C  1.0000  0.65804  0.33513  0.14393  0.0000
C17  C  1.0000  0.79380  0.40516  0.14395  0.0000
C18  C  1.0000  0.86238  0.33711  0.14338  0.0000
C19  C  1.0000  0.00156  0.60099  0.14358  0.0000
C20  C  1.0000  0.06720  0.53243  0.14356  0.0000
C21  C  1.0000  0.20227  0.59315  0.14372  0.0000
C22  C  1.0000  0.86662  0.54014  0.14400  0.0000
C23  C  1.0000  0.00515  0.80251  0.14249  0.0000
C24  C  1.0000  0.07126  0.73378  0.14308  0.0000
C25  C  1.0000  0.20519  0.79642  0.14313  0.0000
C26  C  1.0000  0.27373  0.72846  0.14375  0.0000
C27  C  1.0000  0.40900  0.79820  0.14400  0.0000
C28  C  1.0000  0.60911  0.80695  0.14387  0.0000
C29  C  1.0000  0.80448  0.80557  0.14293  0.0000
C30  C  1.0000  0.87300  0.73807  0.14314  0.0000
C31  C  1.0000  0.00223  0.00098  0.14150  0.0000
C32  C  1.0000  0.06887  0.93401  0.14173  0.0000
C33  C  1.0000  0.20087  0.99713  0.14187  0.0000
C34  C  1.0000  0.26848  0.93012  0.14263  0.0000
C35  C  1.0000  0.40102  0.99768  0.14302  0.0000
C36  C  1.0000  0.46946  0.93187  0.14353  0.0000
C37  C  1.0000  0.60233  0.00275  0.14331  0.0000
C38  C  1.0000  0.67172  0.93878  0.14307  0.0000
C39  C  1.0000  0.80354  0.00455  0.14228  0.0000
C40  C  1.0000  0.87019  0.93708  0.14203  0.0000
N1  N  1.0000  0.58376  0.39104  0.14427  0.0000
N2  N  1.0000  0.80876  0.61042  0.14425  0.0000
N3  N  1.0000  0.67455  0.74296  0.14390  0.0000
N4  N  1.0000  0.39334  0.39462  0.14352  0.0000
N5  N  1.0000  0.26153  0.52354  0.14369  0.0000
N6  N  1.0000  0.48151  0.73944  0.14462  0.0000
Co1  Co  1.0000  0.43476  0.56962  0.14488  0.0000
Zn1  Zn  1.0000  0.63138  0.56570  0.14632  0.0000
