data_CNCoZr
_audit_creation_method           'pos2cif.pl'
_cell_length_a               12.3170003891
_cell_length_b               12.3170003891315
_cell_length_c               20
_cell_angle_alpha            90
_cell_angle_beta             90
_cell_angle_gamma            120.010002136348
_symmetry_space_group_H-M        'P1'
_symmetry_Int_Tables_number      '1'
_symmetry_cell_setting           'triclinic'
loop_
_symmetry_equiv_pos_as_xyz
x,y,z

loop_
_atom_site_label
_atom_site_type_symbol
_atom_site_occupancy
_atom_site_fract_x
_atom_site_fract_y
_atom_site_fract_z
_atom_site_U_iso_or_equiv
C1  C  1.0000  0.00004  0.20073  0.14113  0.0000
C2  C  1.0000  0.06672  0.13376  0.13949  0.0000
C3  C  1.0000  0.19893  0.19780  0.13824  0.0000
C4  C  1.0000  0.26404  0.12872  0.13649  0.0000
C5  C  1.0000  0.39567  0.19448  0.13558  0.0000
C6  C  1.0000  0.46542  0.13049  0.13676  0.0000
C7  C  1.0000  0.59843  0.20156  0.13859  0.0000
C8  C  1.0000  0.66701  0.13634  0.14046  0.0000
C9  C  1.0000  0.79974  0.20404  0.14208  0.0000
C10  C  1.0000  0.86776  0.13735  0.14197  0.0000
C11  C  1.0000  0.99703  0.40024  0.14417  0.0000
C12  C  1.0000  0.06414  0.33243  0.14245  0.0000
C13  C  1.0000  0.19668  0.39705  0.14219  0.0000
C14  C  1.0000  0.26438  0.32923  0.13988  0.0000
C15  C  1.0000  0.45833  0.32649  0.13607  0.0000
C16  C  1.0000  0.65940  0.33502  0.14093  0.0000
C17  C  1.0000  0.79421  0.40516  0.14522  0.0000
C18  C  1.0000  0.86317  0.33742  0.14385  0.0000
C19  C  1.0000  -0.00014  0.60091  0.14601  0.0000
C20  C  1.0000  0.06636  0.53276  0.14455  0.0000
C21  C  1.0000  0.20190  0.59336  0.14346  0.0000
C22  C  1.0000  0.86422  0.54016  0.14889  0.0000
C23  C  1.0000  0.00391  0.80141  0.14382  0.0000
C24  C  1.0000  0.07085  0.73361  0.14402  0.0000
C25  C  1.0000  0.20514  0.79605  0.14143  0.0000
C26  C  1.0000  0.27413  0.72823  0.14198  0.0000
C27  C  1.0000  0.40995  0.79655  0.14118  0.0000
C28  C  1.0000  0.61098  0.80876  0.14709  0.0000
C29  C  1.0000  0.80650  0.80757  0.14922  0.0000
C30  C  1.0000  0.87125  0.73716  0.14910  0.0000
C31  C  1.0000  0.00356  0.00178  0.14039  0.0000
C32  C  1.0000  0.06875  0.93332  0.14017  0.0000
C33  C  1.0000  0.20098  0.99661  0.13793  0.0000
C34  C  1.0000  0.26872  0.92964  0.13873  0.0000
C35  C  1.0000  0.40160  0.99678  0.13812  0.0000
C36  C  1.0000  0.47033  0.93087  0.14017  0.0000
C37  C  1.0000  0.60309  0.00304  0.14119  0.0000
C38  C  1.0000  0.67281  0.93980  0.14458  0.0000
C39  C  1.0000  0.80497  0.00570  0.14377  0.0000
C40  C  1.0000  0.87189  0.93850  0.14387  0.0000
N1  N  1.0000  0.58696  0.39308  0.14005  0.0000
N2  N  1.0000  0.80312  0.60852  0.15440  0.0000
N3  N  1.0000  0.67741  0.74637  0.15459  0.0000
N4  N  1.0000  0.39554  0.39500  0.13767  0.0000
N5  N  1.0000  0.26202  0.52494  0.14343  0.0000
N6  N  1.0000  0.48327  0.73755  0.14172  0.0000
Co1  Co  1.0000  0.43817  0.56811  0.13937  0.0000
Zr1  Zr  1.0000  0.59771  0.55672  0.18547  0.0000
