data_CNCr
_audit_creation_method           'pos2cif.pl'
_cell_length_a               12.3170003891
_cell_length_b               12.3170003891315
_cell_length_c               20
_cell_angle_alpha            90
_cell_angle_beta             90
_cell_angle_gamma            120.010002136348
_symmetry_space_group_H-M        'P1'
_symmetry_Int_Tables_number      '1'
_symmetry_cell_setting           'triclinic'
loop_
_symmetry_equiv_pos_as_xyz
x,y,z

loop_
_atom_site_label
_atom_site_type_symbol
_atom_site_occupancy
_atom_site_fract_x
_atom_site_fract_y
_atom_site_fract_z
_atom_site_U_iso_or_equiv
C1  C  1.0000  0.99887  0.19989  0.13431  0.0000
C2  C  1.0000  0.06545  0.13299  0.13292  0.0000
C3  C  1.0000  0.19777  0.19733  0.13578  0.0000
C4  C  1.0000  0.26413  0.12949  0.13650  0.0000
C5  C  1.0000  0.39579  0.19491  0.14084  0.0000
C6  C  1.0000  0.46508  0.13109  0.14163  0.0000
C7  C  1.0000  0.59811  0.20126  0.14369  0.0000
C8  C  1.0000  0.66656  0.13592  0.14110  0.0000
C9  C  1.0000  0.79916  0.20317  0.13933  0.0000
C10  C  1.0000  0.86660  0.13631  0.13592  0.0000
C11  C  1.0000  0.99671  0.39980  0.13962  0.0000
C12  C  1.0000  0.06322  0.33160  0.13702  0.0000
C13  C  1.0000  0.19543  0.39617  0.14045  0.0000
C14  C  1.0000  0.26386  0.32859  0.14165  0.0000
C15  C  1.0000  0.45832  0.32607  0.14890  0.0000
C16  C  1.0000  0.65898  0.33410  0.14873  0.0000
C17  C  1.0000  0.79459  0.40433  0.14587  0.0000
C18  C  1.0000  0.86299  0.33677  0.14126  0.0000
C19  C  1.0000  0.00109  0.60109  0.14148  0.0000
C20  C  1.0000  0.06629  0.53271  0.14144  0.0000
C21  C  1.0000  0.20053  0.59445  0.14421  0.0000
C22  C  1.0000  0.86684  0.53935  0.14440  0.0000
C23  C  1.0000  0.00415  0.80220  0.13722  0.0000
C24  C  1.0000  0.07068  0.73400  0.13967  0.0000
C25  C  1.0000  0.20441  0.79706  0.14116  0.0000
C26  C  1.0000  0.27276  0.72946  0.14574  0.0000
C27  C  1.0000  0.40837  0.79973  0.14869  0.0000
C28  C  1.0000  0.60905  0.80775  0.14932  0.0000
C29  C  1.0000  0.80351  0.80518  0.14216  0.0000
C30  C  1.0000  0.87195  0.73762  0.14086  0.0000
C31  C  1.0000  0.00188  0.00075  0.13301  0.0000
C32  C  1.0000  0.06850  0.93390  0.13427  0.0000
C33  C  1.0000  0.20080  0.99749  0.13556  0.0000
C34  C  1.0000  0.26824  0.93066  0.13906  0.0000
C35  C  1.0000  0.40083  0.99791  0.14087  0.0000
C36  C  1.0000  0.46927  0.93257  0.14369  0.0000
C37  C  1.0000  0.60232  0.00274  0.14190  0.0000
C38  C  1.0000  0.67164  0.93893  0.14140  0.0000
C39  C  1.0000  0.80328  0.00432  0.13708  0.0000
C40  C  1.0000  0.86959  0.93642  0.13623  0.0000
N1  N  1.0000  0.58606  0.39078  0.15631  0.0000
N2  N  1.0000  0.80858  0.60907  0.14597  0.0000
N3  N  1.0000  0.67355  0.74275  0.15174  0.0000
N4  N  1.0000  0.39380  0.39102  0.15121  0.0000
N5  N  1.0000  0.25882  0.52473  0.14553  0.0000
N6  N  1.0000  0.48124  0.74300  0.15634  0.0000
Cr1  Cr  1.0000  0.42879  0.56621  0.16969  0.0000
Cr2  Cr  1.0000  0.63854  0.56751  0.17022  0.0000
