data_CNCrCu
_audit_creation_method           'pos2cif.pl'
_cell_length_a               12.3170003891
_cell_length_b               12.3170003891315
_cell_length_c               20
_cell_angle_alpha            90
_cell_angle_beta             90
_cell_angle_gamma            120.010002136348
_symmetry_space_group_H-M        'P1'
_symmetry_Int_Tables_number      '1'
_symmetry_cell_setting           'triclinic'
loop_
_symmetry_equiv_pos_as_xyz
x,y,z

loop_
_atom_site_label
_atom_site_type_symbol
_atom_site_occupancy
_atom_site_fract_x
_atom_site_fract_y
_atom_site_fract_z
_atom_site_U_iso_or_equiv
C1  C  1.0000  0.99825  0.19931  0.14217  0.0000
C2  C  1.0000  0.06389  0.13145  0.14186  0.0000
C3  C  1.0000  0.19594  0.19536  0.14198  0.0000
C4  C  1.0000  0.26316  0.12862  0.14207  0.0000
C5  C  1.0000  0.39491  0.19479  0.14262  0.0000
C6  C  1.0000  0.46492  0.13186  0.14295  0.0000
C7  C  1.0000  0.59789  0.20306  0.14338  0.0000
C8  C  1.0000  0.66636  0.13703  0.14319  0.0000
C9  C  1.0000  0.79898  0.20364  0.14299  0.0000
C10  C  1.0000  0.86623  0.13621  0.14247  0.0000
C11  C  1.0000  0.99673  0.39984  0.14304  0.0000
C12  C  1.0000  0.06282  0.33126  0.14253  0.0000
C13  C  1.0000  0.19506  0.39520  0.14279  0.0000
C14  C  1.0000  0.26185  0.32660  0.14262  0.0000
C15  C  1.0000  0.45705  0.32667  0.14340  0.0000
C16  C  1.0000  0.65828  0.33728  0.14386  0.0000
C17  C  1.0000  0.79421  0.40546  0.14376  0.0000
C18  C  1.0000  0.86263  0.33733  0.14326  0.0000
C19  C  1.0000  0.00271  0.60132  0.14334  0.0000
C20  C  1.0000  0.06797  0.53279  0.14328  0.0000
C21  C  1.0000  0.20274  0.59413  0.14349  0.0000
C22  C  1.0000  0.86799  0.54059  0.14369  0.0000
C23  C  1.0000  0.00479  0.80209  0.14268  0.0000
C24  C  1.0000  0.07137  0.73394  0.14301  0.0000
C25  C  1.0000  0.20509  0.79706  0.14305  0.0000
C26  C  1.0000  0.27352  0.72939  0.14359  0.0000
C27  C  1.0000  0.40864  0.80028  0.14387  0.0000
C28  C  1.0000  0.60869  0.80682  0.14393  0.0000
C29  C  1.0000  0.80235  0.80308  0.14324  0.0000
C30  C  1.0000  0.87251  0.73688  0.14322  0.0000
C31  C  1.0000  0.00070  -0.00059  0.14201  0.0000
C32  C  1.0000  0.06829  0.93344  0.14214  0.0000
C33  C  1.0000  0.20039  0.99694  0.14213  0.0000
C34  C  1.0000  0.26841  0.93058  0.14265  0.0000
C35  C  1.0000  0.40107  0.99855  0.14292  0.0000
C36  C  1.0000  0.46960  0.93337  0.14337  0.0000
C37  C  1.0000  0.60253  0.00343  0.14322  0.0000
C38  C  1.0000  0.67172  0.93899  0.14313  0.0000
C39  C  1.0000  0.80315  0.00411  0.14258  0.0000
C40  C  1.0000  0.86828  0.93496  0.14249  0.0000
N1  N  1.0000  0.58452  0.39471  0.14426  0.0000
N2  N  1.0000  0.81022  0.60971  0.14386  0.0000
N3  N  1.0000  0.67082  0.73844  0.14413  0.0000
N4  N  1.0000  0.39155  0.39002  0.14348  0.0000
N5  N  1.0000  0.26163  0.52415  0.14352  0.0000
N6  N  1.0000  0.48083  0.74273  0.14457  0.0000
Cr1  Cr  1.0000  0.43968  0.56967  0.14512  0.0000
Cu1  Cu  1.0000  0.63612  0.56862  0.14500  0.0000
