data_CNCrFe
_audit_creation_method           'pos2cif.pl'
_cell_length_a               12.3170003891
_cell_length_b               12.3170003891315
_cell_length_c               20
_cell_angle_alpha            90
_cell_angle_beta             90
_cell_angle_gamma            120.010002136348
_symmetry_space_group_H-M        'P1'
_symmetry_Int_Tables_number      '1'
_symmetry_cell_setting           'triclinic'
loop_
_symmetry_equiv_pos_as_xyz
x,y,z

loop_
_atom_site_label
_atom_site_type_symbol
_atom_site_occupancy
_atom_site_fract_x
_atom_site_fract_y
_atom_site_fract_z
_atom_site_U_iso_or_equiv
C1  C  1.0000  0.99882  0.19979  0.14265  0.0000
C2  C  1.0000  0.06459  0.13214  0.14176  0.0000
C3  C  1.0000  0.19675  0.19623  0.14133  0.0000
C4  C  1.0000  0.26342  0.12893  0.14114  0.0000
C5  C  1.0000  0.39531  0.19474  0.14220  0.0000
C6  C  1.0000  0.46494  0.13139  0.14333  0.0000
C7  C  1.0000  0.59795  0.20217  0.14449  0.0000
C8  C  1.0000  0.66651  0.13657  0.14416  0.0000
C9  C  1.0000  0.79922  0.20358  0.14417  0.0000
C10  C  1.0000  0.86666  0.13646  0.14367  0.0000
C11  C  1.0000  0.99692  0.39998  0.14231  0.0000
C12  C  1.0000  0.06347  0.33171  0.14194  0.0000
C13  C  1.0000  0.19576  0.39597  0.14045  0.0000
C14  C  1.0000  0.26312  0.32771  0.14139  0.0000
C15  C  1.0000  0.45781  0.32635  0.14406  0.0000
C16  C  1.0000  0.65877  0.33575  0.14642  0.0000
C17  C  1.0000  0.79440  0.40501  0.14511  0.0000
C18  C  1.0000  0.86306  0.33716  0.14397  0.0000
C19  C  1.0000  0.00121  0.60109  0.14153  0.0000
C20  C  1.0000  0.06712  0.53284  0.14125  0.0000
C21  C  1.0000  0.20201  0.59445  0.13996  0.0000
C22  C  1.0000  0.86644  0.53974  0.14346  0.0000
C23  C  1.0000  0.00382  0.80192  0.14074  0.0000
C24  C  1.0000  0.07057  0.73388  0.14067  0.0000
C25  C  1.0000  0.20433  0.79696  0.14080  0.0000
C26  C  1.0000  0.27305  0.72946  0.14095  0.0000
C27  C  1.0000  0.40835  0.80017  0.14284  0.0000
C28  C  1.0000  0.60876  0.80727  0.14571  0.0000
C29  C  1.0000  0.80221  0.80358  0.14362  0.0000
C30  C  1.0000  0.87155  0.73739  0.14192  0.0000
C31  C  1.0000  0.00098  -0.00005  0.14169  0.0000
C32  C  1.0000  0.06801  0.93356  0.14089  0.0000
C33  C  1.0000  0.20022  0.99710  0.14097  0.0000
C34  C  1.0000  0.26807  0.93057  0.14136  0.0000
C35  C  1.0000  0.40077  0.99829  0.14266  0.0000
C36  C  1.0000  0.46943  0.93321  0.14344  0.0000
C37  C  1.0000  0.60240  0.00318  0.14398  0.0000
C38  C  1.0000  0.67179  0.93899  0.14446  0.0000
C39  C  1.0000  0.80347  0.00447  0.14396  0.0000
C40  C  1.0000  0.86861  0.93558  0.14298  0.0000
N1  N  1.0000  0.58573  0.39349  0.14941  0.0000
N2  N  1.0000  0.80738  0.60913  0.14402  0.0000
N3  N  1.0000  0.67069  0.73831  0.14759  0.0000
N4  N  1.0000  0.39348  0.39081  0.14204  0.0000
N5  N  1.0000  0.26132  0.52494  0.13826  0.0000
N6  N  1.0000  0.48089  0.74302  0.14399  0.0000
Cr1  Cr  1.0000  0.43912  0.57016  0.13764  0.0000
Fe1  Fe  1.0000  0.63778  0.56597  0.16458  0.0000
