data_CNCrHf
_audit_creation_method           'pos2cif.pl'
_cell_length_a               12.3170003891
_cell_length_b               12.3170003891315
_cell_length_c               20
_cell_angle_alpha            90
_cell_angle_beta             90
_cell_angle_gamma            120.010002136348
_symmetry_space_group_H-M        'P1'
_symmetry_Int_Tables_number      '1'
_symmetry_cell_setting           'triclinic'
loop_
_symmetry_equiv_pos_as_xyz
x,y,z

loop_
_atom_site_label
_atom_site_type_symbol
_atom_site_occupancy
_atom_site_fract_x
_atom_site_fract_y
_atom_site_fract_z
_atom_site_U_iso_or_equiv
C1  C  1.0000  0.00142  0.20155  0.14663  0.0000
C2  C  1.0000  0.06774  0.13448  0.14595  0.0000
C3  C  1.0000  0.20035  0.19921  0.14395  0.0000
C4  C  1.0000  0.26429  0.12898  0.14214  0.0000
C5  C  1.0000  0.39616  0.19347  0.13939  0.0000
C6  C  1.0000  0.46580  0.13009  0.13954  0.0000
C7  C  1.0000  0.59919  0.20039  0.13933  0.0000
C8  C  1.0000  0.66804  0.13567  0.14226  0.0000
C9  C  1.0000  0.80079  0.20382  0.14450  0.0000
C10  C  1.0000  0.86858  0.13725  0.14671  0.0000
C11  C  1.0000  0.99862  0.40074  0.14455  0.0000
C12  C  1.0000  0.06628  0.33328  0.14530  0.0000
C13  C  1.0000  0.19930  0.39824  0.14264  0.0000
C14  C  1.0000  0.26710  0.33124  0.14253  0.0000
C15  C  1.0000  0.46033  0.32405  0.13524  0.0000
C16  C  1.0000  0.66115  0.33292  0.13872  0.0000
C17  C  1.0000  0.79565  0.40469  0.14325  0.0000
C18  C  1.0000  0.86499  0.33733  0.14426  0.0000
C19  C  1.0000  -0.00122  0.60087  0.14484  0.0000
C20  C  1.0000  0.06665  0.53348  0.14314  0.0000
C21  C  1.0000  0.20191  0.59555  0.13982  0.0000
C22  C  1.0000  0.86331  0.53891  0.14672  0.0000
C23  C  1.0000  0.00196  0.80109  0.14600  0.0000
C24  C  1.0000  0.06940  0.73376  0.14432  0.0000
C25  C  1.0000  0.20326  0.79682  0.14154  0.0000
C26  C  1.0000  0.27273  0.72971  0.13904  0.0000
C27  C  1.0000  0.40857  0.79990  0.13839  0.0000
C28  C  1.0000  0.60874  0.80798  0.14505  0.0000
C29  C  1.0000  0.80426  0.80593  0.14931  0.0000
C30  C  1.0000  0.86903  0.73668  0.14896  0.0000
C31  C  1.0000  0.00304  0.00186  0.14638  0.0000
C32  C  1.0000  0.06764  0.93322  0.14495  0.0000
C33  C  1.0000  0.20026  -0.00287  0.14288  0.0000
C34  C  1.0000  0.26790  0.93029  0.14153  0.0000
C35  C  1.0000  0.40083  0.99740  0.14084  0.0000
C36  C  1.0000  0.46997  0.93260  0.14105  0.0000
C37  C  1.0000  0.60309  0.00282  0.14271  0.0000
C38  C  1.0000  0.67243  0.93914  0.14614  0.0000
C39  C  1.0000  0.80487  0.00555  0.14791  0.0000
C40  C  1.0000  0.87075  0.93758  0.14802  0.0000
N1  N  1.0000  0.58854  0.39027  0.13485  0.0000
N2  N  1.0000  0.79947  0.60659  0.15197  0.0000
N3  N  1.0000  0.67243  0.74107  0.15196  0.0000
N4  N  1.0000  0.40057  0.39565  0.13529  0.0000
N5  N  1.0000  0.26329  0.52722  0.13721  0.0000
N6  N  1.0000  0.48190  0.74279  0.13510  0.0000
Cr1  Cr  1.0000  0.43445  0.57215  0.11015  0.0000
Hf1  Hf  1.0000  0.60123  0.54974  0.17901  0.0000
