data_CNCrHg
_audit_creation_method           'pos2cif.pl'
_cell_length_a               12.3170003891
_cell_length_b               12.3170003891315
_cell_length_c               20
_cell_angle_alpha            90
_cell_angle_beta             90
_cell_angle_gamma            120.010002136348
_symmetry_space_group_H-M        'P1'
_symmetry_Int_Tables_number      '1'
_symmetry_cell_setting           'triclinic'
loop_
_symmetry_equiv_pos_as_xyz
x,y,z

loop_
_atom_site_label
_atom_site_type_symbol
_atom_site_occupancy
_atom_site_fract_x
_atom_site_fract_y
_atom_site_fract_z
_atom_site_U_iso_or_equiv
C1  C  1.0000  0.00032  0.20001  0.14041  0.0000
C2  C  1.0000  0.06470  0.13087  0.13998  0.0000
C3  C  1.0000  0.19812  0.19634  0.14029  0.0000
C4  C  1.0000  0.26424  0.12863  0.13982  0.0000
C5  C  1.0000  0.39649  0.19573  0.14002  0.0000
C6  C  1.0000  0.46551  0.13207  0.13991  0.0000
C7  C  1.0000  0.59864  0.20254  0.14042  0.0000
C8  C  1.0000  0.66755  0.13791  0.14007  0.0000
C9  C  1.0000  0.80055  0.20391  0.14047  0.0000
C10  C  1.0000  0.86802  0.13696  0.13992  0.0000
C11  C  1.0000  -0.00038  0.40058  0.14151  0.0000
C12  C  1.0000  0.06638  0.33259  0.14118  0.0000
C13  C  1.0000  0.19978  0.39765  0.14155  0.0000
C14  C  1.0000  0.26732  0.32878  0.14108  0.0000
C15  C  1.0000  0.46371  0.32938  0.14083  0.0000
C16  C  1.0000  0.65844  0.33630  0.14146  0.0000
C17  C  1.0000  0.79571  0.40451  0.14195  0.0000
C18  C  1.0000  0.86438  0.33764  0.14141  0.0000
C19  C  1.0000  0.00331  0.60071  0.14117  0.0000
C20  C  1.0000  0.07046  0.53310  0.14145  0.0000
C21  C  1.0000  0.20608  0.59477  0.14149  0.0000
C22  C  1.0000  0.86784  0.53981  0.14187  0.0000
C23  C  1.0000  0.00065  0.79898  0.13963  0.0000
C24  C  1.0000  0.06963  0.73289  0.14031  0.0000
C25  C  1.0000  0.20433  0.79677  0.14009  0.0000
C26  C  1.0000  0.27363  0.73014  0.14064  0.0000
C27  C  1.0000  0.40842  0.80181  0.14000  0.0000
C28  C  1.0000  0.60854  0.81083  0.13870  0.0000
C29  C  1.0000  0.79323  0.79689  0.13899  0.0000
C30  C  1.0000  0.86534  0.72926  0.14007  0.0000
C31  C  1.0000  -0.00110  -0.00244  0.13935  0.0000
C32  C  1.0000  0.06619  0.93116  0.13930  0.0000
C33  C  1.0000  0.19921  0.99599  0.13946  0.0000
C34  C  1.0000  0.26763  0.93014  0.13956  0.0000
C35  C  1.0000  0.40060  0.99875  0.13958  0.0000
C36  C  1.0000  0.46964  0.93490  0.13952  0.0000
C37  C  1.0000  0.60282  0.00531  0.13944  0.0000
C38  C  1.0000  0.67219  0.94197  0.13888  0.0000
C39  C  1.0000  0.80336  0.00417  0.13907  0.0000
C40  C  1.0000  0.86500  0.93137  0.13901  0.0000
N1  N  1.0000  0.58916  0.39511  0.14192  0.0000
N2  N  1.0000  0.80556  0.60434  0.14193  0.0000
N3  N  1.0000  0.66346  0.73805  0.13836  0.0000
N4  N  1.0000  0.39701  0.39366  0.14134  0.0000
N5  N  1.0000  0.26754  0.52615  0.14221  0.0000
N6  N  1.0000  0.48039  0.74574  0.14000  0.0000
Cr1  Cr  1.0000  0.45564  0.57845  0.14419  0.0000
Hg1  Hg  1.0000  0.60179  0.56000  0.27214  0.0000
