data_CNCrIr
_audit_creation_method           'pos2cif.pl'
_cell_length_a               12.3170003891
_cell_length_b               12.3170003891315
_cell_length_c               20
_cell_angle_alpha            90
_cell_angle_beta             90
_cell_angle_gamma            120.010002136348
_symmetry_space_group_H-M        'P1'
_symmetry_Int_Tables_number      '1'
_symmetry_cell_setting           'triclinic'
loop_
_symmetry_equiv_pos_as_xyz
x,y,z

loop_
_atom_site_label
_atom_site_type_symbol
_atom_site_occupancy
_atom_site_fract_x
_atom_site_fract_y
_atom_site_fract_z
_atom_site_U_iso_or_equiv
C1  C  1.0000  0.99894  0.20062  0.14131  0.0000
C2  C  1.0000  0.06451  0.13257  0.14046  0.0000
C3  C  1.0000  0.19572  0.19453  0.14095  0.0000
C4  C  1.0000  0.26164  0.12650  0.14113  0.0000
C5  C  1.0000  0.39290  0.19155  0.14232  0.0000
C6  C  1.0000  0.46392  0.12959  0.14300  0.0000
C7  C  1.0000  0.59686  0.20124  0.14364  0.0000
C8  C  1.0000  0.66638  0.13692  0.14345  0.0000
C9  C  1.0000  0.79921  0.20492  0.14301  0.0000
C10  C  1.0000  0.86712  0.13845  0.14191  0.0000
C11  C  1.0000  0.99688  0.40050  0.14355  0.0000
C12  C  1.0000  0.06336  0.33221  0.14250  0.0000
C13  C  1.0000  0.19539  0.39489  0.14300  0.0000
C14  C  1.0000  0.26089  0.32544  0.14238  0.0000
C15  C  1.0000  0.45252  0.32179  0.14338  0.0000
C16  C  1.0000  0.65696  0.33440  0.14417  0.0000
C17  C  1.0000  0.79336  0.40594  0.14428  0.0000
C18  C  1.0000  0.86277  0.33852  0.14362  0.0000
C19  C  1.0000  0.00128  0.60109  0.14416  0.0000
C20  C  1.0000  0.06836  0.53307  0.14420  0.0000
C21  C  1.0000  0.20391  0.59343  0.14434  0.0000
C22  C  1.0000  0.86571  0.54053  0.14438  0.0000
C23  C  1.0000  0.00477  0.80228  0.14233  0.0000
C24  C  1.0000  0.07100  0.73345  0.14334  0.0000
C25  C  1.0000  0.20480  0.79553  0.14333  0.0000
C26  C  1.0000  0.27399  0.72806  0.14421  0.0000
C27  C  1.0000  0.40960  0.79930  0.14432  0.0000
C28  C  1.0000  0.61211  0.81020  0.14410  0.0000
C29  C  1.0000  0.80621  0.80852  0.14297  0.0000
C30  C  1.0000  0.87326  0.73982  0.14320  0.0000
C31  C  1.0000  0.00222  0.00118  0.14051  0.0000
C32  C  1.0000  0.06822  0.93344  0.14097  0.0000
C33  C  1.0000  0.19982  0.99534  0.14119  0.0000
C34  C  1.0000  0.26794  0.92887  0.14245  0.0000
C35  C  1.0000  0.40053  0.99661  0.14306  0.0000
C36  C  1.0000  0.46979  0.93220  0.14381  0.0000
C37  C  1.0000  0.60298  0.00394  0.14357  0.0000
C38  C  1.0000  0.67326  0.94135  0.14322  0.0000
C39  C  1.0000  0.80467  0.00680  0.14204  0.0000
C40  C  1.0000  0.87091  0.93912  0.14156  0.0000
N1  N  1.0000  0.58123  0.38873  0.14454  0.0000
N2  N  1.0000  0.80786  0.61224  0.14439  0.0000
N3  N  1.0000  0.67714  0.74617  0.14434  0.0000
N4  N  1.0000  0.38934  0.38817  0.14357  0.0000
N5  N  1.0000  0.26461  0.52321  0.14424  0.0000
N6  N  1.0000  0.48262  0.74213  0.14481  0.0000
Cr1  Cr  1.0000  0.44911  0.57405  0.14528  0.0000
Ir1  Ir  1.0000  0.62042  0.56174  0.14541  0.0000
