data_CNCrMn
_audit_creation_method           'pos2cif.pl'
_cell_length_a               12.3170003891
_cell_length_b               12.3170003891315
_cell_length_c               20
_cell_angle_alpha            90
_cell_angle_beta             90
_cell_angle_gamma            120.010002136348
_symmetry_space_group_H-M        'P1'
_symmetry_Int_Tables_number      '1'
_symmetry_cell_setting           'triclinic'
loop_
_symmetry_equiv_pos_as_xyz
x,y,z

loop_
_atom_site_label
_atom_site_type_symbol
_atom_site_occupancy
_atom_site_fract_x
_atom_site_fract_y
_atom_site_fract_z
_atom_site_U_iso_or_equiv
C1  C  1.0000  -0.00111  0.19965  0.14159  0.0000
C2  C  1.0000  0.06478  0.13231  0.14095  0.0000
C3  C  1.0000  0.19694  0.19651  0.13995  0.0000
C4  C  1.0000  0.26351  0.12904  0.14010  0.0000
C5  C  1.0000  0.39539  0.19471  0.14063  0.0000
C6  C  1.0000  0.46500  0.13140  0.14208  0.0000
C7  C  1.0000  0.59824  0.20187  0.14313  0.0000
C8  C  1.0000  0.66670  0.13634  0.14341  0.0000
C9  C  1.0000  0.79926  0.20316  0.14328  0.0000
C10  C  1.0000  0.86667  0.13605  0.14309  0.0000
C11  C  1.0000  0.99707  0.39979  0.14140  0.0000
C12  C  1.0000  0.06344  0.33141  0.14050  0.0000
C13  C  1.0000  0.19553  0.39578  0.13885  0.0000
C14  C  1.0000  0.26320  0.32796  0.13948  0.0000
C15  C  1.0000  0.45802  0.32632  0.14193  0.0000
C16  C  1.0000  0.65935  0.33490  0.14470  0.0000
C17  C  1.0000  0.79495  0.40452  0.14419  0.0000
C18  C  1.0000  0.86338  0.33668  0.14294  0.0000
C19  C  1.0000  0.00153  0.60098  0.14223  0.0000
C20  C  1.0000  0.06699  0.53269  0.14119  0.0000
C21  C  1.0000  0.20155  0.59477  0.14024  0.0000
C22  C  1.0000  0.86747  0.53905  0.14398  0.0000
C23  C  1.0000  0.00381  0.80207  0.14222  0.0000
C24  C  1.0000  0.07059  0.73402  0.14195  0.0000
C25  C  1.0000  0.20396  0.79711  0.14186  0.0000
C26  C  1.0000  0.27262  0.72956  0.14213  0.0000
C27  C  1.0000  0.40787  0.80060  0.14432  0.0000
C28  C  1.0000  0.60805  0.80787  0.14750  0.0000
C29  C  1.0000  0.80275  0.80384  0.14541  0.0000
C30  C  1.0000  0.87168  0.73765  0.14396  0.0000
C31  C  1.0000  0.00114  0.00008  0.14191  0.0000
C32  C  1.0000  0.06802  0.93362  0.14148  0.0000
C33  C  1.0000  0.20032  0.99729  0.14088  0.0000
C34  C  1.0000  0.26802  0.93080  0.14165  0.0000
C35  C  1.0000  0.40068  0.99852  0.14233  0.0000
C36  C  1.0000  0.46927  0.93340  0.14380  0.0000
C37  C  1.0000  0.60223  0.00311  0.14408  0.0000
C38  C  1.0000  0.67162  0.93922  0.14520  0.0000
C39  C  1.0000  0.80352  0.00439  0.14427  0.0000
C40  C  1.0000  0.86889  0.93568  0.14384  0.0000
N1  N  1.0000  0.58615  0.39251  0.14663  0.0000
N2  N  1.0000  0.80857  0.60839  0.14619  0.0000
N3  N  1.0000  0.67039  0.73962  0.14983  0.0000
N4  N  1.0000  0.39409  0.39107  0.14035  0.0000
N5  N  1.0000  0.26021  0.52504  0.13773  0.0000
N6  N  1.0000  0.48044  0.74365  0.14680  0.0000
Cr1  Cr  1.0000  0.43513  0.56964  0.14204  0.0000
Mn1  Mn  1.0000  0.63915  0.56652  0.16373  0.0000
