data_CNCrMo
_audit_creation_method           'pos2cif.pl'
_cell_length_a               12.3170003891
_cell_length_b               12.3170003891315
_cell_length_c               20
_cell_angle_alpha            90
_cell_angle_beta             90
_cell_angle_gamma            120.010002136348
_symmetry_space_group_H-M        'P1'
_symmetry_Int_Tables_number      '1'
_symmetry_cell_setting           'triclinic'
loop_
_symmetry_equiv_pos_as_xyz
x,y,z

loop_
_atom_site_label
_atom_site_type_symbol
_atom_site_occupancy
_atom_site_fract_x
_atom_site_fract_y
_atom_site_fract_z
_atom_site_U_iso_or_equiv
C1  C  1.0000  0.00117  0.20182  0.14643  0.0000
C2  C  1.0000  0.06732  0.13456  0.14645  0.0000
C3  C  1.0000  0.19993  0.19913  0.14327  0.0000
C4  C  1.0000  0.26429  0.12920  0.14230  0.0000
C5  C  1.0000  0.39582  0.19340  0.13876  0.0000
C6  C  1.0000  0.46545  0.12989  0.13921  0.0000
C7  C  1.0000  0.59895  0.20034  0.13800  0.0000
C8  C  1.0000  0.66768  0.13560  0.14290  0.0000
C9  C  1.0000  0.80043  0.20406  0.14432  0.0000
C10  C  1.0000  0.86851  0.13777  0.14738  0.0000
C11  C  1.0000  0.99820  0.40109  0.14282  0.0000
C12  C  1.0000  0.06591  0.33364  0.14355  0.0000
C13  C  1.0000  0.19866  0.39858  0.13892  0.0000
C14  C  1.0000  0.26652  0.33086  0.13898  0.0000
C15  C  1.0000  0.45891  0.32412  0.13206  0.0000
C16  C  1.0000  0.66101  0.33267  0.13548  0.0000
C17  C  1.0000  0.79503  0.40498  0.14169  0.0000
C18  C  1.0000  0.86427  0.33765  0.14295  0.0000
C19  C  1.0000  -0.00186  0.60105  0.14465  0.0000
C20  C  1.0000  0.06600  0.53359  0.14154  0.0000
C21  C  1.0000  0.20144  0.59522  0.13771  0.0000
C22  C  1.0000  0.86271  0.53957  0.14683  0.0000
C23  C  1.0000  0.00229  0.80136  0.14740  0.0000
C24  C  1.0000  0.06946  0.73388  0.14498  0.0000
C25  C  1.0000  0.20350  0.79665  0.14257  0.0000
C26  C  1.0000  0.27289  0.72949  0.13971  0.0000
C27  C  1.0000  0.40879  0.79925  0.14165  0.0000
C28  C  1.0000  0.60968  0.80763  0.15013  0.0000
C29  C  1.0000  0.80414  0.80609  0.15310  0.0000
C30  C  1.0000  0.86951  0.73740  0.15123  0.0000
C31  C  1.0000  0.00288  0.00202  0.14801  0.0000
C32  C  1.0000  0.06788  0.93358  0.14651  0.0000
C33  C  1.0000  0.20028  0.99705  0.14404  0.0000
C34  C  1.0000  0.26793  0.93017  0.14290  0.0000
C35  C  1.0000  0.40100  0.99728  0.14198  0.0000
C36  C  1.0000  0.47001  0.93225  0.14365  0.0000
C37  C  1.0000  0.60310  0.00256  0.14556  0.0000
C38  C  1.0000  0.67278  0.93915  0.14987  0.0000
C39  C  1.0000  0.80503  0.00602  0.15028  0.0000
C40  C  1.0000  0.87054  0.93779  0.15061  0.0000
N1  N  1.0000  0.58813  0.39011  0.12990  0.0000
N2  N  1.0000  0.79947  0.60808  0.15338  0.0000
N3  N  1.0000  0.67301  0.73995  0.15635  0.0000
N4  N  1.0000  0.39829  0.39388  0.12925  0.0000
N5  N  1.0000  0.26231  0.52704  0.13258  0.0000
N6  N  1.0000  0.48224  0.74209  0.14109  0.0000
Cr1  Cr  1.0000  0.44229  0.57472  0.11424  0.0000
Mo1  Mo  1.0000  0.60326  0.54685  0.16476  0.0000
