data_CNCrNb
_audit_creation_method           'pos2cif.pl'
_cell_length_a               12.3170003891
_cell_length_b               12.3170003891315
_cell_length_c               20
_cell_angle_alpha            90
_cell_angle_beta             90
_cell_angle_gamma            120.010002136348
_symmetry_space_group_H-M        'P1'
_symmetry_Int_Tables_number      '1'
_symmetry_cell_setting           'triclinic'
loop_
_symmetry_equiv_pos_as_xyz
x,y,z

loop_
_atom_site_label
_atom_site_type_symbol
_atom_site_occupancy
_atom_site_fract_x
_atom_site_fract_y
_atom_site_fract_z
_atom_site_U_iso_or_equiv
C1  C  1.0000  0.00116  0.20133  0.14477  0.0000
C2  C  1.0000  0.06674  0.13355  0.14404  0.0000
C3  C  1.0000  0.19938  0.19816  0.14196  0.0000
C4  C  1.0000  0.26368  0.12852  0.14025  0.0000
C5  C  1.0000  0.39548  0.19334  0.13721  0.0000
C6  C  1.0000  0.46552  0.13054  0.13820  0.0000
C7  C  1.0000  0.59903  0.20108  0.13824  0.0000
C8  C  1.0000  0.66790  0.13636  0.14248  0.0000
C9  C  1.0000  0.80071  0.20414  0.14399  0.0000
C10  C  1.0000  0.86849  0.13741  0.14558  0.0000
C11  C  1.0000  0.99886  0.40086  0.14396  0.0000
C12  C  1.0000  0.06630  0.33328  0.14390  0.0000
C13  C  1.0000  0.19941  0.39799  0.14140  0.0000
C14  C  1.0000  0.26628  0.33009  0.14028  0.0000
C15  C  1.0000  0.45898  0.32404  0.13208  0.0000
C16  C  1.0000  0.66107  0.33369  0.13687  0.0000
C17  C  1.0000  0.79545  0.40492  0.14328  0.0000
C18  C  1.0000  0.86486  0.33770  0.14381  0.0000
C19  C  1.0000  -0.00020  0.60093  0.14559  0.0000
C20  C  1.0000  0.06771  0.53357  0.14302  0.0000
C21  C  1.0000  0.20331  0.59522  0.14027  0.0000
C22  C  1.0000  0.86421  0.53953  0.14861  0.0000
C23  C  1.0000  0.00189  0.80083  0.14578  0.0000
C24  C  1.0000  0.06958  0.73369  0.14483  0.0000
C25  C  1.0000  0.20355  0.79676  0.14223  0.0000
C26  C  1.0000  0.27309  0.72979  0.14057  0.0000
C27  C  1.0000  0.40859  0.80085  0.14111  0.0000
C28  C  1.0000  0.60887  0.80891  0.14897  0.0000
C29  C  1.0000  0.80257  0.80445  0.15005  0.0000
C30  C  1.0000  0.86880  0.73599  0.15033  0.0000
C31  C  1.0000  0.00194  0.00088  0.14470  0.0000
C32  C  1.0000  0.06719  0.93281  0.14375  0.0000
C33  C  1.0000  0.19978  -0.00335  0.14169  0.0000
C34  C  1.0000  0.26776  0.93024  0.14138  0.0000
C35  C  1.0000  0.40082  0.99792  0.14081  0.0000
C36  C  1.0000  0.46998  0.93352  0.14270  0.0000
C37  C  1.0000  0.60312  0.00357  0.14446  0.0000
C38  C  1.0000  0.67261  0.93999  0.14838  0.0000
C39  C  1.0000  0.80475  0.00565  0.14768  0.0000
C40  C  1.0000  0.86943  0.93640  0.14708  0.0000
N1  N  1.0000  0.58772  0.39055  0.13099  0.0000
N2  N  1.0000  0.80182  0.60721  0.15576  0.0000
N3  N  1.0000  0.67070  0.73998  0.15449  0.0000
N4  N  1.0000  0.39854  0.39446  0.13205  0.0000
N5  N  1.0000  0.26498  0.52691  0.13815  0.0000
N6  N  1.0000  0.48188  0.74449  0.13966  0.0000
Cr1  Cr  1.0000  0.44514  0.57776  0.11808  0.0000
Nb1  Nb  1.0000  0.59763  0.54465  0.17647  0.0000
