data_CNCrNi
_audit_creation_method           'pos2cif.pl'
_cell_length_a               12.3170003891
_cell_length_b               12.3170003891315
_cell_length_c               20
_cell_angle_alpha            90
_cell_angle_beta             90
_cell_angle_gamma            120.010002136348
_symmetry_space_group_H-M        'P1'
_symmetry_Int_Tables_number      '1'
_symmetry_cell_setting           'triclinic'
loop_
_symmetry_equiv_pos_as_xyz
x,y,z

loop_
_atom_site_label
_atom_site_type_symbol
_atom_site_occupancy
_atom_site_fract_x
_atom_site_fract_y
_atom_site_fract_z
_atom_site_U_iso_or_equiv
C1  C  1.0000  0.99873  0.19995  0.14416  0.0000
C2  C  1.0000  0.06430  0.13190  0.14348  0.0000
C3  C  1.0000  0.19638  0.19565  0.14158  0.0000
C4  C  1.0000  0.26325  0.12855  0.14160  0.0000
C5  C  1.0000  0.39517  0.19490  0.14159  0.0000
C6  C  1.0000  0.46478  0.13152  0.14342  0.0000
C7  C  1.0000  0.59768  0.20287  0.14414  0.0000
C8  C  1.0000  0.66630  0.13696  0.14511  0.0000
C9  C  1.0000  0.79906  0.20398  0.14528  0.0000
C10  C  1.0000  0.86657  0.13684  0.14540  0.0000
C11  C  1.0000  0.99697  0.40021  0.14347  0.0000
C12  C  1.0000  0.06351  0.33195  0.14288  0.0000
C13  C  1.0000  0.19597  0.39580  0.13996  0.0000
C14  C  1.0000  0.26253  0.32700  0.13891  0.0000
C15  C  1.0000  0.45740  0.32698  0.14014  0.0000
C16  C  1.0000  0.65799  0.33703  0.14418  0.0000
C17  C  1.0000  0.79388  0.40553  0.14467  0.0000
C18  C  1.0000  0.86275  0.33773  0.14465  0.0000
C19  C  1.0000  0.00142  0.60120  0.14325  0.0000
C20  C  1.0000  0.06791  0.53299  0.14254  0.0000
C21  C  1.0000  0.20334  0.59409  0.14082  0.0000
C22  C  1.0000  0.86591  0.54035  0.14454  0.0000
C23  C  1.0000  0.00378  0.80156  0.14316  0.0000
C24  C  1.0000  0.07072  0.73366  0.14272  0.0000
C25  C  1.0000  0.20474  0.79660  0.14239  0.0000
C26  C  1.0000  0.27355  0.72904  0.14180  0.0000
C27  C  1.0000  0.40886  0.79975  0.14310  0.0000
C28  C  1.0000  0.60912  0.80634  0.14643  0.0000
C29  C  1.0000  0.80217  0.80359  0.14586  0.0000
C30  C  1.0000  0.87123  0.73682  0.14478  0.0000
C31  C  1.0000  0.00085  -0.00023  0.14385  0.0000
C32  C  1.0000  0.06790  0.93322  0.14296  0.0000
C33  C  1.0000  0.20019  0.99668  0.14250  0.0000
C34  C  1.0000  0.26818  0.93017  0.14281  0.0000
C35  C  1.0000  0.40091  0.99808  0.14374  0.0000
C36  C  1.0000  0.46956  0.93291  0.14459  0.0000
C37  C  1.0000  0.60259  0.00324  0.14548  0.0000
C38  C  1.0000  0.67190  0.93887  0.14650  0.0000
C39  C  1.0000  0.80340  0.00460  0.14609  0.0000
C40  C  1.0000  0.86845  0.93549  0.14512  0.0000
N1  N  1.0000  0.58522  0.39555  0.14372  0.0000
N2  N  1.0000  0.80644  0.60931  0.14609  0.0000
N3  N  1.0000  0.67134  0.73787  0.14829  0.0000
N4  N  1.0000  0.39208  0.39058  0.13544  0.0000
N5  N  1.0000  0.26351  0.52448  0.13807  0.0000
N6  N  1.0000  0.48105  0.74206  0.14229  0.0000
Cr1  Cr  1.0000  0.44558  0.57193  0.12763  0.0000
Ni1  Ni  1.0000  0.63191  0.56504  0.15077  0.0000
