data_CNCrOs
_audit_creation_method           'pos2cif.pl'
_cell_length_a               12.3170003891
_cell_length_b               12.3170003891315
_cell_length_c               20
_cell_angle_alpha            90
_cell_angle_beta             90
_cell_angle_gamma            120.010002136348
_symmetry_space_group_H-M        'P1'
_symmetry_Int_Tables_number      '1'
_symmetry_cell_setting           'triclinic'
loop_
_symmetry_equiv_pos_as_xyz
x,y,z

loop_
_atom_site_label
_atom_site_type_symbol
_atom_site_occupancy
_atom_site_fract_x
_atom_site_fract_y
_atom_site_fract_z
_atom_site_U_iso_or_equiv
C1  C  1.0000  0.99885  0.20068  0.13889  0.0000
C2  C  1.0000  0.06446  0.13255  0.13652  0.0000
C3  C  1.0000  0.19581  0.19477  0.13201  0.0000
C4  C  1.0000  0.26202  0.12662  0.13162  0.0000
C5  C  1.0000  0.39358  0.19166  0.13249  0.0000
C6  C  1.0000  0.46408  0.12929  0.13761  0.0000
C7  C  1.0000  0.59695  0.20184  0.14143  0.0000
C8  C  1.0000  0.66628  0.13703  0.14352  0.0000
C9  C  1.0000  0.79903  0.20499  0.14393  0.0000
C10  C  1.0000  0.86722  0.13848  0.14346  0.0000
C11  C  1.0000  0.99654  0.40059  0.14200  0.0000
C12  C  1.0000  0.06312  0.33238  0.13819  0.0000
C13  C  1.0000  0.19538  0.39571  0.13557  0.0000
C14  C  1.0000  0.26072  0.32558  0.13141  0.0000
C15  C  1.0000  0.45329  0.32217  0.13491  0.0000
C16  C  1.0000  0.65668  0.33487  0.14531  0.0000
C17  C  1.0000  0.79270  0.40591  0.14701  0.0000
C18  C  1.0000  0.86218  0.33846  0.14417  0.0000
C19  C  1.0000  0.00051  0.60109  0.14594  0.0000
C20  C  1.0000  0.06749  0.53296  0.14311  0.0000
C21  C  1.0000  0.20320  0.59304  0.14158  0.0000
C22  C  1.0000  0.86510  0.54090  0.14903  0.0000
C23  C  1.0000  0.00478  0.80230  0.14539  0.0000
C24  C  1.0000  0.07106  0.73355  0.14430  0.0000
C25  C  1.0000  0.20511  0.79550  0.14174  0.0000
C26  C  1.0000  0.27442  0.72791  0.14275  0.0000
C27  C  1.0000  0.41013  0.79782  0.14503  0.0000
C28  C  1.0000  0.61239  0.81052  0.15461  0.0000
C29  C  1.0000  0.80757  0.80976  0.15473  0.0000
C30  C  1.0000  0.87328  0.73995  0.15149  0.0000
C31  C  1.0000  0.00254  0.00150  0.14096  0.0000
C32  C  1.0000  0.06844  0.93352  0.14043  0.0000
C33  C  1.0000  0.19998  0.99534  0.13596  0.0000
C34  C  1.0000  0.26820  0.92878  0.13853  0.0000
C35  C  1.0000  0.40091  0.99622  0.13938  0.0000
C36  C  1.0000  0.47005  0.93132  0.14380  0.0000
C37  C  1.0000  0.60304  0.00384  0.14538  0.0000
C38  C  1.0000  0.67348  0.94142  0.14994  0.0000
C39  C  1.0000  0.80505  0.00718  0.14787  0.0000
C40  C  1.0000  0.87156  0.93962  0.14801  0.0000
N1  N  1.0000  0.58022  0.39001  0.14809  0.0000
N2  N  1.0000  0.80645  0.61193  0.15318  0.0000
N3  N  1.0000  0.67861  0.74763  0.16214  0.0000
N4  N  1.0000  0.38971  0.38770  0.13067  0.0000
N5  N  1.0000  0.26364  0.52376  0.13838  0.0000
N6  N  1.0000  0.48376  0.74011  0.14847  0.0000
Cr1  Cr  1.0000  0.45251  0.56957  0.13620  0.0000
Os1  Os  1.0000  0.61494  0.56282  0.16480  0.0000
