data_CNCrPd
_audit_creation_method           'pos2cif.pl'
_cell_length_a               12.3170003891
_cell_length_b               12.3170003891315
_cell_length_c               20
_cell_angle_alpha            90
_cell_angle_beta             90
_cell_angle_gamma            120.010002136348
_symmetry_space_group_H-M        'P1'
_symmetry_Int_Tables_number      '1'
_symmetry_cell_setting           'triclinic'
loop_
_symmetry_equiv_pos_as_xyz
x,y,z

loop_
_atom_site_label
_atom_site_type_symbol
_atom_site_occupancy
_atom_site_fract_x
_atom_site_fract_y
_atom_site_fract_z
_atom_site_U_iso_or_equiv
C1  C  1.0000  -0.00095  0.20018  0.14110  0.0000
C2  C  1.0000  0.06458  0.13209  0.13935  0.0000
C3  C  1.0000  0.19603  0.19492  0.13341  0.0000
C4  C  1.0000  0.26234  0.12716  0.13341  0.0000
C5  C  1.0000  0.39409  0.19273  0.13276  0.0000
C6  C  1.0000  0.46445  0.13041  0.13805  0.0000
C7  C  1.0000  0.59742  0.20171  0.14096  0.0000
C8  C  1.0000  0.66656  0.13702  0.14425  0.0000
C9  C  1.0000  0.79936  0.20430  0.14468  0.0000
C10  C  1.0000  0.86719  0.13765  0.14540  0.0000
C11  C  1.0000  0.99723  0.40021  0.14165  0.0000
C12  C  1.0000  0.06374  0.33199  0.13844  0.0000
C13  C  1.0000  0.19584  0.39527  0.13316  0.0000
C14  C  1.0000  0.26214  0.32616  0.12933  0.0000
C15  C  1.0000  0.45597  0.32432  0.13194  0.0000
C16  C  1.0000  0.65736  0.33525  0.14296  0.0000
C17  C  1.0000  0.79378  0.40530  0.14625  0.0000
C18  C  1.0000  0.86302  0.33796  0.14414  0.0000
C19  C  1.0000  0.00227  0.60108  0.14586  0.0000
C20  C  1.0000  0.06847  0.53298  0.14196  0.0000
C21  C  1.0000  0.20358  0.59405  0.13930  0.0000
C22  C  1.0000  0.86705  0.54030  0.14967  0.0000
C23  C  1.0000  0.00425  0.80183  0.14713  0.0000
C24  C  1.0000  0.07096  0.73354  0.14514  0.0000
C25  C  1.0000  0.20484  0.79622  0.14251  0.0000
C26  C  1.0000  0.27389  0.72877  0.14225  0.0000
C27  C  1.0000  0.40930  0.79954  0.14549  0.0000
C28  C  1.0000  0.60992  0.80924  0.15496  0.0000
C29  C  1.0000  0.80409  0.80644  0.15642  0.0000
C30  C  1.0000  0.87229  0.73769  0.15392  0.0000
C31  C  1.0000  0.00159  0.00045  0.14401  0.0000
C32  C  1.0000  0.06800  0.93312  0.14280  0.0000
C33  C  1.0000  0.19982  0.99581  0.13829  0.0000
C34  C  1.0000  0.26803  0.92953  0.14024  0.0000
C35  C  1.0000  0.40072  0.99726  0.14075  0.0000
C36  C  1.0000  0.46961  0.93267  0.14512  0.0000
C37  C  1.0000  0.60278  0.00396  0.14678  0.0000
C38  C  1.0000  0.67255  0.94106  0.15136  0.0000
C39  C  1.0000  0.80415  0.00588  0.14994  0.0000
C40  C  1.0000  0.87008  0.93750  0.15048  0.0000
N1  N  1.0000  0.58222  0.38992  0.14180  0.0000
N2  N  1.0000  0.81017  0.61034  0.15662  0.0000
N3  N  1.0000  0.67447  0.74581  0.16204  0.0000
N4  N  1.0000  0.39142  0.38904  0.12509  0.0000
N5  N  1.0000  0.26338  0.52432  0.13319  0.0000
N6  N  1.0000  0.48182  0.74199  0.14800  0.0000
Cr1  Cr  1.0000  0.44253  0.57194  0.12591  0.0000
Pd1  Pd  1.0000  0.62261  0.56423  0.16370  0.0000
