data_CNCrPt
_audit_creation_method           'pos2cif.pl'
_cell_length_a               12.3170003891
_cell_length_b               12.3170003891315
_cell_length_c               20
_cell_angle_alpha            90
_cell_angle_beta             90
_cell_angle_gamma            120.010002136348
_symmetry_space_group_H-M        'P1'
_symmetry_Int_Tables_number      '1'
_symmetry_cell_setting           'triclinic'
loop_
_symmetry_equiv_pos_as_xyz
x,y,z

loop_
_atom_site_label
_atom_site_type_symbol
_atom_site_occupancy
_atom_site_fract_x
_atom_site_fract_y
_atom_site_fract_z
_atom_site_U_iso_or_equiv
C1  C  1.0000  0.99876  0.20018  0.14340  0.0000
C2  C  1.0000  0.06457  0.13229  0.14175  0.0000
C3  C  1.0000  0.19546  0.19445  0.13396  0.0000
C4  C  1.0000  0.26200  0.12683  0.13351  0.0000
C5  C  1.0000  0.39366  0.19230  0.13184  0.0000
C6  C  1.0000  0.46437  0.13029  0.13774  0.0000
C7  C  1.0000  0.59722  0.20219  0.14102  0.0000
C8  C  1.0000  0.66635  0.13721  0.14541  0.0000
C9  C  1.0000  0.79910  0.20455  0.14654  0.0000
C10  C  1.0000  0.86699  0.13785  0.14826  0.0000
C11  C  1.0000  0.99676  0.40020  0.14212  0.0000
C12  C  1.0000  0.06311  0.33178  0.13928  0.0000
C13  C  1.0000  0.19487  0.39468  0.13242  0.0000
C14  C  1.0000  0.26061  0.32515  0.12797  0.0000
C15  C  1.0000  0.45419  0.32344  0.12972  0.0000
C16  C  1.0000  0.65701  0.33596  0.14245  0.0000
C17  C  1.0000  0.79332  0.40582  0.14602  0.0000
C18  C  1.0000  0.86260  0.33816  0.14496  0.0000
C19  C  1.0000  0.00231  0.60130  0.14575  0.0000
C20  C  1.0000  0.06828  0.53296  0.14158  0.0000
C21  C  1.0000  0.20344  0.59370  0.13802  0.0000
C22  C  1.0000  0.86701  0.54068  0.14926  0.0000
C23  C  1.0000  0.00540  0.80246  0.14913  0.0000
C24  C  1.0000  0.07165  0.73379  0.14557  0.0000
C25  C  1.0000  0.20541  0.79611  0.14216  0.0000
C26  C  1.0000  0.27442  0.72849  0.14072  0.0000
C27  C  1.0000  0.41000  0.79882  0.14362  0.0000
C28  C  1.0000  0.61016  0.80846  0.15448  0.0000
C29  C  1.0000  0.80624  0.80796  0.15863  0.0000
C30  C  1.0000  0.87388  0.73916  0.15550  0.0000
C31  C  1.0000  0.00234  0.00110  0.14732  0.0000
C32  C  1.0000  0.06870  0.93366  0.14530  0.0000
C33  C  1.0000  0.20013  0.99581  0.13930  0.0000
C34  C  1.0000  0.26840  0.92943  0.14027  0.0000
C35  C  1.0000  0.40107  0.99704  0.14052  0.0000
C36  C  1.0000  0.46996  0.93218  0.14468  0.0000
C37  C  1.0000  0.60297  0.00384  0.14766  0.0000
C38  C  1.0000  0.67258  0.94062  0.15311  0.0000
C39  C  1.0000  0.80430  0.00614  0.15312  0.0000
C40  C  1.0000  0.87111  0.93866  0.15399  0.0000
N1  N  1.0000  0.58076  0.39058  0.14061  0.0000
N2  N  1.0000  0.81038  0.61142  0.15598  0.0000
N3  N  1.0000  0.67638  0.74610  0.16198  0.0000
N4  N  1.0000  0.38928  0.38737  0.12145  0.0000
N5  N  1.0000  0.26276  0.52364  0.13141  0.0000
N6  N  1.0000  0.48277  0.74091  0.14482  0.0000
Cr1  Cr  1.0000  0.44157  0.56975  0.11978  0.0000
Pt1  Pt  1.0000  0.62247  0.56570  0.15783  0.0000
