data_CNCrRe
_audit_creation_method           'pos2cif.pl'
_cell_length_a               12.3170003891
_cell_length_b               12.3170003891315
_cell_length_c               20
_cell_angle_alpha            90
_cell_angle_beta             90
_cell_angle_gamma            120.010002136348
_symmetry_space_group_H-M        'P1'
_symmetry_Int_Tables_number      '1'
_symmetry_cell_setting           'triclinic'
loop_
_symmetry_equiv_pos_as_xyz
x,y,z

loop_
_atom_site_label
_atom_site_type_symbol
_atom_site_occupancy
_atom_site_fract_x
_atom_site_fract_y
_atom_site_fract_z
_atom_site_U_iso_or_equiv
C1  C  1.0000  0.00110  0.20227  0.14185  0.0000
C2  C  1.0000  0.06744  0.13525  0.14139  0.0000
C3  C  1.0000  0.19944  0.19837  0.14172  0.0000
C4  C  1.0000  0.26242  0.12722  0.14165  0.0000
C5  C  1.0000  0.39353  0.18944  0.14239  0.0000
C6  C  1.0000  0.46445  0.12751  0.14270  0.0000
C7  C  1.0000  0.59771  0.19797  0.14324  0.0000
C8  C  1.0000  0.66739  0.13476  0.14298  0.0000
C9  C  1.0000  0.80030  0.20445  0.14280  0.0000
C10  C  1.0000  0.86880  0.13895  0.14211  0.0000
C11  C  1.0000  0.99767  0.40110  0.14325  0.0000
C12  C  1.0000  0.06565  0.33376  0.14258  0.0000
C13  C  1.0000  0.19828  0.39805  0.14306  0.0000
C14  C  1.0000  0.26658  0.33048  0.14280  0.0000
C15  C  1.0000  0.45533  0.31818  0.14362  0.0000
C16  C  1.0000  0.65909  0.32966  0.14397  0.0000
C17  C  1.0000  0.79399  0.40495  0.14396  0.0000
C18  C  1.0000  0.86398  0.33807  0.14331  0.0000
C19  C  1.0000  -0.00263  0.60117  0.14382  0.0000
C20  C  1.0000  0.06550  0.53372  0.14373  0.0000
C21  C  1.0000  0.20063  0.59518  0.14395  0.0000
C22  C  1.0000  0.86195  0.53968  0.14413  0.0000
C23  C  1.0000  0.00324  0.80286  0.14263  0.0000
C24  C  1.0000  0.06899  0.73385  0.14326  0.0000
C25  C  1.0000  0.20284  0.79605  0.14317  0.0000
C26  C  1.0000  0.27229  0.72911  0.14386  0.0000
C27  C  1.0000  0.40835  0.79942  0.14392  0.0000
C28  C  1.0000  0.61207  0.80987  0.14378  0.0000
C29  C  1.0000  0.80603  0.80946  0.14304  0.0000
C30  C  1.0000  0.87190  0.74156  0.14327  0.0000
C31  C  1.0000  0.00352  0.00315  0.14143  0.0000
C32  C  1.0000  0.06792  0.93428  0.14170  0.0000
C33  C  1.0000  0.19954  0.99614  0.14169  0.0000
C34  C  1.0000  0.26718  0.92921  0.14244  0.0000
C35  C  1.0000  0.40003  0.99558  0.14272  0.0000
C36  C  1.0000  0.46961  0.93155  0.14328  0.0000
C37  C  1.0000  0.60305  0.00234  0.14303  0.0000
C38  C  1.0000  0.67383  0.94053  0.14289  0.0000
C39  C  1.0000  0.80572  0.00752  0.14218  0.0000
C40  C  1.0000  0.87182  0.94041  0.14203  0.0000
N1  N  1.0000  0.58368  0.38294  0.14470  0.0000
N2  N  1.0000  0.80178  0.61287  0.14431  0.0000
N3  N  1.0000  0.67567  0.74365  0.14408  0.0000
N4  N  1.0000  0.39824  0.39029  0.14398  0.0000
N5  N  1.0000  0.26203  0.52692  0.14406  0.0000
N6  N  1.0000  0.48270  0.74364  0.14456  0.0000
Cr1  Cr  1.0000  0.44185  0.57525  0.14563  0.0000
Re1  Re  1.0000  0.61452  0.55246  0.14530  0.0000
