data_CNCrRh
_audit_creation_method           'pos2cif.pl'
_cell_length_a               12.3170003891
_cell_length_b               12.3170003891315
_cell_length_c               20
_cell_angle_alpha            90
_cell_angle_beta             90
_cell_angle_gamma            120.010002136348
_symmetry_space_group_H-M        'P1'
_symmetry_Int_Tables_number      '1'
_symmetry_cell_setting           'triclinic'
loop_
_symmetry_equiv_pos_as_xyz
x,y,z

loop_
_atom_site_label
_atom_site_type_symbol
_atom_site_occupancy
_atom_site_fract_x
_atom_site_fract_y
_atom_site_fract_z
_atom_site_U_iso_or_equiv
C1  C  1.0000  0.99921  0.20061  0.14136  0.0000
C2  C  1.0000  0.06461  0.13238  0.14054  0.0000
C3  C  1.0000  0.19606  0.19472  0.14100  0.0000
C4  C  1.0000  0.26193  0.12666  0.14118  0.0000
C5  C  1.0000  0.39334  0.19196  0.14234  0.0000
C6  C  1.0000  0.46411  0.12987  0.14299  0.0000
C7  C  1.0000  0.59711  0.20133  0.14363  0.0000
C8  C  1.0000  0.66661  0.13715  0.14345  0.0000
C9  C  1.0000  0.79946  0.20485  0.14301  0.0000
C10  C  1.0000  0.86735  0.13838  0.14193  0.0000
C11  C  1.0000  0.99734  0.40051  0.14354  0.0000
C12  C  1.0000  0.06386  0.33228  0.14251  0.0000
C13  C  1.0000  0.19609  0.39518  0.14301  0.0000
C14  C  1.0000  0.26185  0.32583  0.14241  0.0000
C15  C  1.0000  0.45412  0.32277  0.14337  0.0000
C16  C  1.0000  0.65722  0.33452  0.14414  0.0000
C17  C  1.0000  0.79371  0.40564  0.14426  0.0000
C18  C  1.0000  0.86308  0.33846  0.14361  0.0000
C19  C  1.0000  0.00146  0.60097  0.14413  0.0000
C20  C  1.0000  0.06867  0.53308  0.14417  0.0000
C21  C  1.0000  0.20421  0.59367  0.14432  0.0000
C22  C  1.0000  0.86580  0.54043  0.14435  0.0000
C23  C  1.0000  0.00393  0.80161  0.14237  0.0000
C24  C  1.0000  0.07066  0.73326  0.14333  0.0000
C25  C  1.0000  0.20465  0.79562  0.14332  0.0000
C26  C  1.0000  0.27394  0.72833  0.14419  0.0000
C27  C  1.0000  0.40947  0.79971  0.14430  0.0000
C28  C  1.0000  0.61175  0.81064  0.14408  0.0000
C29  C  1.0000  0.80450  0.80726  0.14297  0.0000
C30  C  1.0000  0.87182  0.73813  0.14323  0.0000
C31  C  1.0000  0.00184  0.00075  0.14061  0.0000
C32  C  1.0000  0.06780  0.93297  0.14105  0.0000
C33  C  1.0000  0.19962  0.99528  0.14124  0.0000
C34  C  1.0000  0.26782  0.92894  0.14246  0.0000
C35  C  1.0000  0.40048  0.99683  0.14305  0.0000
C36  C  1.0000  0.46974  0.93260  0.14379  0.0000
C37  C  1.0000  0.60295  0.00426  0.14356  0.0000
C38  C  1.0000  0.67318  0.94178  0.14321  0.0000
C39  C  1.0000  0.80455  0.00662  0.14206  0.0000
C40  C  1.0000  0.87030  0.93830  0.14160  0.0000
N1  N  1.0000  0.58233  0.38902  0.14446  0.0000
N2  N  1.0000  0.80721  0.61079  0.14438  0.0000
N3  N  1.0000  0.67561  0.74616  0.14428  0.0000
N4  N  1.0000  0.39052  0.38881  0.14357  0.0000
N5  N  1.0000  0.26515  0.52363  0.14422  0.0000
N6  N  1.0000  0.48233  0.74269  0.14480  0.0000
Cr1  Cr  1.0000  0.44900  0.57445  0.14521  0.0000
Rh1  Rh  1.0000  0.61867  0.56147  0.14538  0.0000
