data_CNCrRu
_audit_creation_method           'pos2cif.pl'
_cell_length_a               12.3170003891
_cell_length_b               12.3170003891315
_cell_length_c               20
_cell_angle_alpha            90
_cell_angle_beta             90
_cell_angle_gamma            120.010002136348
_symmetry_space_group_H-M        'P1'
_symmetry_Int_Tables_number      '1'
_symmetry_cell_setting           'triclinic'
loop_
_symmetry_equiv_pos_as_xyz
x,y,z

loop_
_atom_site_label
_atom_site_type_symbol
_atom_site_occupancy
_atom_site_fract_x
_atom_site_fract_y
_atom_site_fract_z
_atom_site_U_iso_or_equiv
C1  C  1.0000  0.00080  0.20195  0.14223  0.0000
C2  C  1.0000  0.06651  0.13419  0.14200  0.0000
C3  C  1.0000  0.19845  0.19719  0.14219  0.0000
C4  C  1.0000  0.26236  0.12714  0.14213  0.0000
C5  C  1.0000  0.39380  0.19048  0.14258  0.0000
C6  C  1.0000  0.46446  0.12839  0.14267  0.0000
C7  C  1.0000  0.59752  0.19905  0.14305  0.0000
C8  C  1.0000  0.66729  0.13579  0.14282  0.0000
C9  C  1.0000  0.80029  0.20474  0.14276  0.0000
C10  C  1.0000  0.86854  0.13894  0.14237  0.0000
C11  C  1.0000  0.99805  0.40117  0.14308  0.0000
C12  C  1.0000  0.06571  0.33370  0.14265  0.0000
C13  C  1.0000  0.19844  0.39760  0.14306  0.0000
C14  C  1.0000  0.26570  0.32926  0.14295  0.0000
C15  C  1.0000  0.45573  0.31994  0.14356  0.0000
C16  C  1.0000  0.65869  0.33146  0.14372  0.0000
C17  C  1.0000  0.79417  0.40510  0.14368  0.0000
C18  C  1.0000  0.86407  0.33840  0.14314  0.0000
C19  C  1.0000  -0.00130  0.60111  0.14354  0.0000
C20  C  1.0000  0.06692  0.53382  0.14344  0.0000
C21  C  1.0000  0.20238  0.59520  0.14368  0.0000
C22  C  1.0000  0.86280  0.53979  0.14381  0.0000
C23  C  1.0000  0.00261  0.80191  0.14289  0.0000
C24  C  1.0000  0.06913  0.73353  0.14322  0.0000
C25  C  1.0000  0.20321  0.79606  0.14312  0.0000
C26  C  1.0000  0.27282  0.72928  0.14361  0.0000
C27  C  1.0000  0.40866  0.79993  0.14365  0.0000
C28  C  1.0000  0.61163  0.81008  0.14364  0.0000
C29  C  1.0000  0.80391  0.80763  0.14323  0.0000
C30  C  1.0000  0.87065  0.73944  0.14337  0.0000
C31  C  1.0000  0.00244  0.00198  0.14209  0.0000
C32  C  1.0000  0.06739  0.93354  0.14228  0.0000
C33  C  1.0000  0.19928  0.99584  0.14219  0.0000
C34  C  1.0000  0.26715  0.92919  0.14260  0.0000
C35  C  1.0000  0.40005  0.99607  0.14265  0.0000
C36  C  1.0000  0.46964  0.93233  0.14303  0.0000
C37  C  1.0000  0.60307  0.00322  0.14284  0.0000
C38  C  1.0000  0.67354  0.94112  0.14285  0.0000
C39  C  1.0000  0.80519  0.00717  0.14246  0.0000
C40  C  1.0000  0.87054  0.93902  0.14248  0.0000
N1  N  1.0000  0.58428  0.38556  0.14437  0.0000
N2  N  1.0000  0.80255  0.61114  0.14404  0.0000
N3  N  1.0000  0.67391  0.74341  0.14400  0.0000
N4  N  1.0000  0.39614  0.38983  0.14388  0.0000
N5  N  1.0000  0.26425  0.52670  0.14383  0.0000
N6  N  1.0000  0.48218  0.74399  0.14427  0.0000
Cr1  Cr  1.0000  0.44474  0.57571  0.14527  0.0000
Ru1  Ru  1.0000  0.61671  0.55306  0.14496  0.0000
