data_CNCrSc
_audit_creation_method           'pos2cif.pl'
_cell_length_a               12.3170003891
_cell_length_b               12.3170003891315
_cell_length_c               20
_cell_angle_alpha            90
_cell_angle_beta             90
_cell_angle_gamma            120.010002136348
_symmetry_space_group_H-M        'P1'
_symmetry_Int_Tables_number      '1'
_symmetry_cell_setting           'triclinic'
loop_
_symmetry_equiv_pos_as_xyz
x,y,z

loop_
_atom_site_label
_atom_site_type_symbol
_atom_site_occupancy
_atom_site_fract_x
_atom_site_fract_y
_atom_site_fract_z
_atom_site_U_iso_or_equiv
C1  C  1.0000  0.00051  0.20071  0.14542  0.0000
C2  C  1.0000  0.06636  0.13338  0.14468  0.0000
C3  C  1.0000  0.19896  0.19839  0.14338  0.0000
C4  C  1.0000  0.26387  0.12924  0.14164  0.0000
C5  C  1.0000  0.39604  0.19468  0.14054  0.0000
C6  C  1.0000  0.46534  0.13094  0.14072  0.0000
C7  C  1.0000  0.59872  0.20086  0.14148  0.0000
C8  C  1.0000  0.66751  0.13594  0.14288  0.0000
C9  C  1.0000  0.80022  0.20320  0.14452  0.0000
C10  C  1.0000  0.86786  0.13655  0.14574  0.0000
C11  C  1.0000  0.99827  0.40018  0.14338  0.0000
C12  C  1.0000  0.06551  0.33248  0.14390  0.0000
C13  C  1.0000  0.19807  0.39746  0.14132  0.0000
C14  C  1.0000  0.26602  0.33041  0.14263  0.0000
C15  C  1.0000  0.46062  0.32626  0.13984  0.0000
C16  C  1.0000  0.66039  0.33326  0.14265  0.0000
C17  C  1.0000  0.79594  0.40414  0.14471  0.0000
C18  C  1.0000  0.86480  0.33668  0.14431  0.0000
C19  C  1.0000  0.00016  0.60065  0.14348  0.0000
C20  C  1.0000  0.06702  0.53307  0.14165  0.0000
C21  C  1.0000  0.20174  0.59541  0.13804  0.0000
C22  C  1.0000  0.86566  0.53805  0.14648  0.0000
C23  C  1.0000  0.00147  0.80100  0.14451  0.0000
C24  C  1.0000  0.06927  0.73371  0.14280  0.0000
C25  C  1.0000  0.20277  0.79700  0.14006  0.0000
C26  C  1.0000  0.27204  0.72980  0.13760  0.0000
C27  C  1.0000  0.40770  0.80070  0.13760  0.0000
C28  C  1.0000  0.60774  0.80880  0.14326  0.0000
C29  C  1.0000  0.80116  0.80327  0.14723  0.0000
C30  C  1.0000  0.86850  0.73568  0.14761  0.0000
C31  C  1.0000  0.00133  0.00054  0.14490  0.0000
C32  C  1.0000  0.06695  0.93293  0.14336  0.0000
C33  C  1.0000  0.19977  0.99733  0.14160  0.0000
C34  C  1.0000  0.26750  0.93071  0.14042  0.0000
C35  C  1.0000  0.40025  0.99807  0.14052  0.0000
C36  C  1.0000  0.46924  0.93319  0.14047  0.0000
C37  C  1.0000  0.60246  0.00329  0.14233  0.0000
C38  C  1.0000  0.67177  0.93973  0.14457  0.0000
C39  C  1.0000  0.80400  0.00481  0.14632  0.0000
C40  C  1.0000  0.86890  0.93579  0.14640  0.0000
N1  N  1.0000  0.58850  0.39136  0.14219  0.0000
N2  N  1.0000  0.80342  0.60567  0.15203  0.0000
N3  N  1.0000  0.66859  0.74005  0.14871  0.0000
N4  N  1.0000  0.39909  0.39499  0.13927  0.0000
N5  N  1.0000  0.26213  0.52654  0.13541  0.0000
N6  N  1.0000  0.48075  0.74390  0.13527  0.0000
Cr1  Cr  1.0000  0.43736  0.57114  0.11861  0.0000
Sc1  Sc  1.0000  0.62477  0.55921  0.18552  0.0000
