data_CNCrTa
_audit_creation_method           'pos2cif.pl'
_cell_length_a               12.3170003891
_cell_length_b               12.3170003891315
_cell_length_c               20
_cell_angle_alpha            90
_cell_angle_beta             90
_cell_angle_gamma            120.010002136348
_symmetry_space_group_H-M        'P1'
_symmetry_Int_Tables_number      '1'
_symmetry_cell_setting           'triclinic'
loop_
_symmetry_equiv_pos_as_xyz
x,y,z

loop_
_atom_site_label
_atom_site_type_symbol
_atom_site_occupancy
_atom_site_fract_x
_atom_site_fract_y
_atom_site_fract_z
_atom_site_U_iso_or_equiv
C1  C  1.0000  0.00167  0.20207  0.14828  0.0000
C2  C  1.0000  0.06818  0.13516  0.14847  0.0000
C3  C  1.0000  0.20078  0.19989  0.14526  0.0000
C4  C  1.0000  0.26459  0.12922  0.14413  0.0000
C5  C  1.0000  0.39604  0.19288  0.14015  0.0000
C6  C  1.0000  0.46559  0.12957  0.13988  0.0000
C7  C  1.0000  0.59919  0.20019  0.13856  0.0000
C8  C  1.0000  0.66796  0.13547  0.14343  0.0000
C9  C  1.0000  0.80064  0.20392  0.14525  0.0000
C10  C  1.0000  0.86870  0.13764  0.14908  0.0000
C11  C  1.0000  0.99842  0.40110  0.14325  0.0000
C12  C  1.0000  0.06637  0.33377  0.14486  0.0000
C13  C  1.0000  0.19934  0.39894  0.14047  0.0000
C14  C  1.0000  0.26722  0.33167  0.14106  0.0000
C15  C  1.0000  0.45966  0.32319  0.13265  0.0000
C16  C  1.0000  0.66111  0.33220  0.13523  0.0000
C17  C  1.0000  0.79535  0.40495  0.14087  0.0000
C18  C  1.0000  0.86468  0.33756  0.14316  0.0000
C19  C  1.0000  -0.00228  0.60088  0.14386  0.0000
C20  C  1.0000  0.06591  0.53359  0.14129  0.0000
C21  C  1.0000  0.20147  0.59537  0.13722  0.0000
C22  C  1.0000  0.86217  0.53909  0.14545  0.0000
C23  C  1.0000  0.00204  0.80137  0.14766  0.0000
C24  C  1.0000  0.06933  0.73385  0.14452  0.0000
C25  C  1.0000  0.20317  0.79650  0.14172  0.0000
C26  C  1.0000  0.27287  0.72956  0.13783  0.0000
C27  C  1.0000  0.40909  0.79937  0.13853  0.0000
C28  C  1.0000  0.60920  0.80748  0.14819  0.0000
C29  C  1.0000  0.80507  0.80681  0.15315  0.0000
C30  C  1.0000  0.86934  0.73764  0.15074  0.0000
C31  C  1.0000  0.00352  0.00249  0.14981  0.0000
C32  C  1.0000  0.06791  0.93363  0.14771  0.0000
C33  C  1.0000  0.20047  0.99722  0.14519  0.0000
C34  C  1.0000  0.26797  0.93023  0.14291  0.0000
C35  C  1.0000  0.40086  0.99696  0.14191  0.0000
C36  C  1.0000  0.47010  0.93198  0.14242  0.0000
C37  C  1.0000  0.60314  0.00246  0.14522  0.0000
C38  C  1.0000  0.67257  0.93894  0.15009  0.0000
C39  C  1.0000  0.80506  0.00596  0.15189  0.0000
C40  C  1.0000  0.87120  0.93828  0.15207  0.0000
N1  N  1.0000  0.58813  0.38931  0.12823  0.0000
N2  N  1.0000  0.79771  0.60736  0.15202  0.0000
N3  N  1.0000  0.67346  0.74085  0.15561  0.0000
N4  N  1.0000  0.40011  0.39486  0.13130  0.0000
N5  N  1.0000  0.26267  0.52727  0.13316  0.0000
N6  N  1.0000  0.48314  0.74254  0.13538  0.0000
Cr1  Cr  1.0000  0.43812  0.57330  0.10692  0.0000
Ta1  Ta  1.0000  0.59805  0.54661  0.16591  0.0000
