data_CNCrTc
_audit_creation_method           'pos2cif.pl'
_cell_length_a               12.3170003891
_cell_length_b               12.3170003891315
_cell_length_c               20
_cell_angle_alpha            90
_cell_angle_beta             90
_cell_angle_gamma            120.010002136348
_symmetry_space_group_H-M        'P1'
_symmetry_Int_Tables_number      '1'
_symmetry_cell_setting           'triclinic'
loop_
_symmetry_equiv_pos_as_xyz
x,y,z

loop_
_atom_site_label
_atom_site_type_symbol
_atom_site_occupancy
_atom_site_fract_x
_atom_site_fract_y
_atom_site_fract_z
_atom_site_U_iso_or_equiv
C1  C  1.0000  0.00101  0.20210  0.14214  0.0000
C2  C  1.0000  0.06696  0.13471  0.14187  0.0000
C3  C  1.0000  0.19899  0.19789  0.14212  0.0000
C4  C  1.0000  0.26249  0.12735  0.14198  0.0000
C5  C  1.0000  0.39384  0.19030  0.14251  0.0000
C6  C  1.0000  0.46454  0.12812  0.14265  0.0000
C7  C  1.0000  0.59773  0.19846  0.14306  0.0000
C8  C  1.0000  0.66739  0.13525  0.14277  0.0000
C9  C  1.0000  0.80036  0.20448  0.14271  0.0000
C10  C  1.0000  0.86870  0.13883  0.14225  0.0000
C11  C  1.0000  0.99802  0.40110  0.14315  0.0000
C12  C  1.0000  0.06582  0.33373  0.14266  0.0000
C13  C  1.0000  0.19852  0.39790  0.14309  0.0000
C14  C  1.0000  0.26627  0.32999  0.14297  0.0000
C15  C  1.0000  0.45612  0.31957  0.14363  0.0000
C16  C  1.0000  0.65919  0.33045  0.14385  0.0000
C17  C  1.0000  0.79434  0.40488  0.14382  0.0000
C18  C  1.0000  0.86424  0.33813  0.14320  0.0000
C19  C  1.0000  -0.00181  0.60110  0.14363  0.0000
C20  C  1.0000  0.06631  0.53379  0.14354  0.0000
C21  C  1.0000  0.20150  0.59523  0.14373  0.0000
C22  C  1.0000  0.86258  0.53964  0.14396  0.0000
C23  C  1.0000  0.00268  0.80225  0.14273  0.0000
C24  C  1.0000  0.06899  0.73368  0.14318  0.0000
C25  C  1.0000  0.20292  0.79613  0.14310  0.0000
C26  C  1.0000  0.27247  0.72926  0.14367  0.0000
C27  C  1.0000  0.40838  0.79969  0.14374  0.0000
C28  C  1.0000  0.61173  0.81031  0.14370  0.0000
C29  C  1.0000  0.80457  0.80818  0.14315  0.0000
C30  C  1.0000  0.87082  0.73996  0.14328  0.0000
C31  C  1.0000  0.00288  0.00249  0.14189  0.0000
C32  C  1.0000  0.06755  0.93384  0.14207  0.0000
C33  C  1.0000  0.19938  0.99609  0.14199  0.0000
C34  C  1.0000  0.26710  0.92930  0.14250  0.0000
C35  C  1.0000  0.40000  0.99595  0.14263  0.0000
C36  C  1.0000  0.46954  0.93200  0.14308  0.0000
C37  C  1.0000  0.60297  0.00285  0.14282  0.0000
C38  C  1.0000  0.67360  0.94101  0.14280  0.0000
C39  C  1.0000  0.80539  0.00722  0.14231  0.0000
C40  C  1.0000  0.87105  0.93950  0.14230  0.0000
N1  N  1.0000  0.58441  0.38409  0.14467  0.0000
N2  N  1.0000  0.80218  0.61137  0.14413  0.0000
N3  N  1.0000  0.67434  0.74391  0.14412  0.0000
N4  N  1.0000  0.39760  0.39055  0.14397  0.0000
N5  N  1.0000  0.26317  0.52699  0.14383  0.0000
N6  N  1.0000  0.48235  0.74385  0.14436  0.0000
Cr1  Cr  1.0000  0.44368  0.57530  0.14521  0.0000
Tc1  Tc  1.0000  0.61417  0.55238  0.14543  0.0000
