data_CNCrTi
_audit_creation_method           'pos2cif.pl'
_cell_length_a               12.3170003891
_cell_length_b               12.3170003891315
_cell_length_c               20
_cell_angle_alpha            90
_cell_angle_beta             90
_cell_angle_gamma            120.010002136348
_symmetry_space_group_H-M        'P1'
_symmetry_Int_Tables_number      '1'
_symmetry_cell_setting           'triclinic'
loop_
_symmetry_equiv_pos_as_xyz
x,y,z

loop_
_atom_site_label
_atom_site_type_symbol
_atom_site_occupancy
_atom_site_fract_x
_atom_site_fract_y
_atom_site_fract_z
_atom_site_U_iso_or_equiv
C1  C  1.0000  0.00042  0.20070  0.14306  0.0000
C2  C  1.0000  0.06634  0.13343  0.14227  0.0000
C3  C  1.0000  0.19887  0.19828  0.14012  0.0000
C4  C  1.0000  0.26392  0.12927  0.13917  0.0000
C5  C  1.0000  0.39604  0.19461  0.13772  0.0000
C6  C  1.0000  0.46531  0.13099  0.13933  0.0000
C7  C  1.0000  0.59884  0.20096  0.14009  0.0000
C8  C  1.0000  0.66754  0.13583  0.14269  0.0000
C9  C  1.0000  0.80015  0.20328  0.14332  0.0000
C10  C  1.0000  0.86781  0.13660  0.14437  0.0000
C11  C  1.0000  0.99815  0.40032  0.14198  0.0000
C12  C  1.0000  0.06542  0.33249  0.14151  0.0000
C13  C  1.0000  0.19788  0.39736  0.13838  0.0000
C14  C  1.0000  0.26603  0.33035  0.13856  0.0000
C15  C  1.0000  0.46040  0.32631  0.13626  0.0000
C16  C  1.0000  0.66075  0.33321  0.14046  0.0000
C17  C  1.0000  0.79587  0.40441  0.14387  0.0000
C18  C  1.0000  0.86475  0.33693  0.14290  0.0000
C19  C  1.0000  -0.00019  0.60086  0.14463  0.0000
C20  C  1.0000  0.06671  0.53323  0.14162  0.0000
C21  C  1.0000  0.20149  0.59567  0.13879  0.0000
C22  C  1.0000  0.86523  0.53836  0.14778  0.0000
C23  C  1.0000  0.00161  0.80118  0.14482  0.0000
C24  C  1.0000  0.06932  0.73386  0.14404  0.0000
C25  C  1.0000  0.20277  0.79702  0.14198  0.0000
C26  C  1.0000  0.27200  0.72982  0.14078  0.0000
C27  C  1.0000  0.40763  0.80089  0.14284  0.0000
C28  C  1.0000  0.60814  0.80814  0.14922  0.0000
C29  C  1.0000  0.80176  0.80371  0.14905  0.0000
C30  C  1.0000  0.86895  0.73641  0.14880  0.0000
C31  C  1.0000  0.00139  0.00063  0.14350  0.0000
C32  C  1.0000  0.06700  0.93311  0.14266  0.0000
C33  C  1.0000  0.19978  0.99733  0.14077  0.0000
C34  C  1.0000  0.26754  0.93078  0.14119  0.0000
C35  C  1.0000  0.40034  0.99822  0.14116  0.0000
C36  C  1.0000  0.46927  0.93327  0.14330  0.0000
C37  C  1.0000  0.60254  0.00301  0.14433  0.0000
C38  C  1.0000  0.67197  0.93944  0.14715  0.0000
C39  C  1.0000  0.80405  0.00490  0.14638  0.0000
C40  C  1.0000  0.86899  0.93590  0.14612  0.0000
N1  N  1.0000  0.58873  0.39144  0.13884  0.0000
N2  N  1.0000  0.80319  0.60647  0.15448  0.0000
N3  N  1.0000  0.66955  0.73921  0.15404  0.0000
N4  N  1.0000  0.39893  0.39458  0.13481  0.0000
N5  N  1.0000  0.26165  0.52669  0.13422  0.0000
N6  N  1.0000  0.48048  0.74380  0.14409  0.0000
Cr1  Cr  1.0000  0.43782  0.57390  0.12555  0.0000
Ti1  Ti  1.0000  0.62386  0.55397  0.17893  0.0000
