data_CNCrV
_audit_creation_method           'pos2cif.pl'
_cell_length_a               12.3170003891
_cell_length_b               12.3170003891315
_cell_length_c               20
_cell_angle_alpha            90
_cell_angle_beta             90
_cell_angle_gamma            120.010002136348
_symmetry_space_group_H-M        'P1'
_symmetry_Int_Tables_number      '1'
_symmetry_cell_setting           'triclinic'
loop_
_symmetry_equiv_pos_as_xyz
x,y,z

loop_
_atom_site_label
_atom_site_type_symbol
_atom_site_occupancy
_atom_site_fract_x
_atom_site_fract_y
_atom_site_fract_z
_atom_site_U_iso_or_equiv
C1  C  1.0000  0.00023  0.20073  0.14236  0.0000
C2  C  1.0000  0.06602  0.13324  0.14329  0.0000
C3  C  1.0000  0.19841  0.19781  0.14562  0.0000
C4  C  1.0000  0.26360  0.12906  0.14693  0.0000
C5  C  1.0000  0.39561  0.19441  0.14800  0.0000
C6  C  1.0000  0.46512  0.13089  0.14668  0.0000
C7  C  1.0000  0.59851  0.20087  0.14571  0.0000
C8  C  1.0000  0.66731  0.13584  0.14367  0.0000
C9  C  1.0000  0.79997  0.20338  0.14236  0.0000
C10  C  1.0000  0.86768  0.13674  0.14128  0.0000
C11  C  1.0000  0.99796  0.40033  0.14360  0.0000
C12  C  1.0000  0.06515  0.33251  0.14395  0.0000
C13  C  1.0000  0.19757  0.39709  0.14729  0.0000
C14  C  1.0000  0.26548  0.32989  0.14736  0.0000
C15  C  1.0000  0.45947  0.32598  0.14830  0.0000
C16  C  1.0000  0.66011  0.33324  0.14398  0.0000
C17  C  1.0000  0.79533  0.40435  0.14138  0.0000
C18  C  1.0000  0.86438  0.33710  0.14244  0.0000
C19  C  1.0000  0.00011  0.60093  0.14214  0.0000
C20  C  1.0000  0.06692  0.53319  0.14461  0.0000
C21  C  1.0000  0.20176  0.59552  0.14773  0.0000
C22  C  1.0000  0.86529  0.53881  0.13878  0.0000
C23  C  1.0000  0.00221  0.80142  0.14190  0.0000
C24  C  1.0000  0.06957  0.73383  0.14311  0.0000
C25  C  1.0000  0.20317  0.79701  0.14528  0.0000
C26  C  1.0000  0.27226  0.72972  0.14655  0.0000
C27  C  1.0000  0.40785  0.80060  0.14491  0.0000
C28  C  1.0000  0.60811  0.80780  0.13785  0.0000
C29  C  1.0000  0.80193  0.80397  0.13692  0.0000
C30  C  1.0000  0.86988  0.73693  0.13766  0.0000
C31  C  1.0000  0.00140  0.00062  0.14230  0.0000
C32  C  1.0000  0.06728  0.93332  0.14355  0.0000
C33  C  1.0000  0.19976  0.99714  0.14565  0.0000
C34  C  1.0000  0.26759  0.93061  0.14578  0.0000
C35  C  1.0000  0.40038  0.99808  0.14576  0.0000
C36  C  1.0000  0.46928  0.93311  0.14407  0.0000
C37  C  1.0000  0.60253  0.00292  0.14263  0.0000
C38  C  1.0000  0.67192  0.93933  0.13949  0.0000
C39  C  1.0000  0.80395  0.00492  0.13955  0.0000
C40  C  1.0000  0.86893  0.93588  0.13974  0.0000
N1  N  1.0000  0.58749  0.39093  0.14289  0.0000
N2  N  1.0000  0.80472  0.60777  0.13305  0.0000
N3  N  1.0000  0.66977  0.73944  0.13169  0.0000
N4  N  1.0000  0.39765  0.39382  0.15120  0.0000
N5  N  1.0000  0.26194  0.52632  0.15171  0.0000
N6  N  1.0000  0.48064  0.74341  0.14424  0.0000
Cr1  Cr  1.0000  0.43706  0.57306  0.16434  0.0000
V1  V  1.0000  0.62778  0.55725  0.11266  0.0000
