data_CNCrW
_audit_creation_method           'pos2cif.pl'
_cell_length_a               12.3170003891
_cell_length_b               12.3170003891315
_cell_length_c               20
_cell_angle_alpha            90
_cell_angle_beta             90
_cell_angle_gamma            120.010002136348
_symmetry_space_group_H-M        'P1'
_symmetry_Int_Tables_number      '1'
_symmetry_cell_setting           'triclinic'
loop_
_symmetry_equiv_pos_as_xyz
x,y,z

loop_
_atom_site_label
_atom_site_type_symbol
_atom_site_occupancy
_atom_site_fract_x
_atom_site_fract_y
_atom_site_fract_z
_atom_site_U_iso_or_equiv
C1  C  1.0000  0.00146  0.20215  0.13839  0.0000
C2  C  1.0000  0.06802  0.13527  0.13802  0.0000
C3  C  1.0000  0.20067  0.19999  0.14122  0.0000
C4  C  1.0000  0.26453  0.12941  0.14213  0.0000
C5  C  1.0000  0.39590  0.19304  0.14607  0.0000
C6  C  1.0000  0.46551  0.12946  0.14639  0.0000
C7  C  1.0000  0.59903  0.19982  0.14823  0.0000
C8  C  1.0000  0.66773  0.13508  0.14336  0.0000
C9  C  1.0000  0.80048  0.20395  0.14157  0.0000
C10  C  1.0000  0.86862  0.13775  0.13785  0.0000
C11  C  1.0000  0.99813  0.40119  0.14310  0.0000
C12  C  1.0000  0.06609  0.33389  0.14169  0.0000
C13  C  1.0000  0.19887  0.39904  0.14665  0.0000
C14  C  1.0000  0.26720  0.33184  0.14602  0.0000
C15  C  1.0000  0.45881  0.32325  0.15382  0.0000
C16  C  1.0000  0.66117  0.33194  0.15137  0.0000
C17  C  1.0000  0.79500  0.40497  0.14529  0.0000
C18  C  1.0000  0.86428  0.33757  0.14325  0.0000
C19  C  1.0000  -0.00262  0.60107  0.14192  0.0000
C20  C  1.0000  0.06542  0.53364  0.14485  0.0000
C21  C  1.0000  0.20082  0.59528  0.14915  0.0000
C22  C  1.0000  0.86193  0.53943  0.14035  0.0000
C23  C  1.0000  0.00252  0.80169  0.13822  0.0000
C24  C  1.0000  0.06936  0.73396  0.14123  0.0000
C25  C  1.0000  0.20333  0.79660  0.14376  0.0000
C26  C  1.0000  0.27273  0.72941  0.14749  0.0000
C27  C  1.0000  0.40883  0.79881  0.14618  0.0000
C28  C  1.0000  0.60942  0.80687  0.13756  0.0000
C29  C  1.0000  0.80531  0.80696  0.13298  0.0000
C30  C  1.0000  0.86999  0.73830  0.13524  0.0000
C31  C  1.0000  0.00352  0.00268  0.13652  0.0000
C32  C  1.0000  0.06817  0.93395  0.13826  0.0000
C33  C  1.0000  0.20051  0.99730  0.14077  0.0000
C34  C  1.0000  0.26796  0.93016  0.14276  0.0000
C35  C  1.0000  0.40101  0.99691  0.14400  0.0000
C36  C  1.0000  0.47008  0.93174  0.14325  0.0000
C37  C  1.0000  0.60309  0.00198  0.14112  0.0000
C38  C  1.0000  0.67269  0.93843  0.13662  0.0000
C39  C  1.0000  0.80514  0.00605  0.13512  0.0000
C40  C  1.0000  0.87117  0.93843  0.13448  0.0000
N1  N  1.0000  0.58791  0.38897  0.15757  0.0000
N2  N  1.0000  0.79823  0.60857  0.13445  0.0000
N3  N  1.0000  0.67374  0.73950  0.13077  0.0000
N4  N  1.0000  0.39936  0.39433  0.15678  0.0000
N5  N  1.0000  0.26162  0.52716  0.15439  0.0000
N6  N  1.0000  0.48251  0.74154  0.14808  0.0000
Cr1  Cr  1.0000  0.43924  0.57386  0.17744  0.0000
W1  W  1.0000  0.60254  0.54793  0.12620  0.0000
