data_CNCrY
_audit_creation_method           'pos2cif.pl'
_cell_length_a               12.3170003891
_cell_length_b               12.3170003891315
_cell_length_c               20
_cell_angle_alpha            90
_cell_angle_beta             90
_cell_angle_gamma            120.010002136348
_symmetry_space_group_H-M        'P1'
_symmetry_Int_Tables_number      '1'
_symmetry_cell_setting           'triclinic'
loop_
_symmetry_equiv_pos_as_xyz
x,y,z

loop_
_atom_site_label
_atom_site_type_symbol
_atom_site_occupancy
_atom_site_fract_x
_atom_site_fract_y
_atom_site_fract_z
_atom_site_U_iso_or_equiv
C1  C  1.0000  0.00007  0.19990  0.14167  0.0000
C2  C  1.0000  0.06466  0.13150  0.14095  0.0000
C3  C  1.0000  0.19756  0.19683  0.14065  0.0000
C4  C  1.0000  0.26325  0.12884  0.13956  0.0000
C5  C  1.0000  0.39555  0.19574  0.14075  0.0000
C6  C  1.0000  0.46481  0.13203  0.14111  0.0000
C7  C  1.0000  0.59833  0.20189  0.14233  0.0000
C8  C  1.0000  0.66720  0.13687  0.14096  0.0000
C9  C  1.0000  0.80002  0.20301  0.14218  0.0000
C10  C  1.0000  0.86744  0.13581  0.14162  0.0000
C11  C  1.0000  -0.00104  0.39985  0.14235  0.0000
C12  C  1.0000  0.06610  0.33216  0.14167  0.0000
C13  C  1.0000  0.19875  0.39678  0.14106  0.0000
C14  C  1.0000  0.26519  0.32887  0.14126  0.0000
C15  C  1.0000  0.45984  0.32779  0.14395  0.0000
C16  C  1.0000  0.65995  0.33414  0.14702  0.0000
C17  C  1.0000  0.79593  0.40354  0.14637  0.0000
C18  C  1.0000  0.86510  0.33635  0.14374  0.0000
C19  C  1.0000  0.00161  0.59999  0.14210  0.0000
C20  C  1.0000  0.06925  0.53272  0.14151  0.0000
C21  C  1.0000  0.20474  0.59521  0.14040  0.0000
C22  C  1.0000  0.86724  0.53745  0.14546  0.0000
C23  C  1.0000  0.00072  0.80003  0.14138  0.0000
C24  C  1.0000  0.06890  0.73315  0.14108  0.0000
C25  C  1.0000  0.20236  0.79678  0.13992  0.0000
C26  C  1.0000  0.27184  0.72974  0.13980  0.0000
C27  C  1.0000  0.40655  0.80243  0.13983  0.0000
C28  C  1.0000  0.60579  0.80988  0.14180  0.0000
C29  C  1.0000  0.79712  0.79910  0.14208  0.0000
C30  C  1.0000  0.86671  0.73350  0.14372  0.0000
C31  C  1.0000  -0.00116  -0.00170  0.14087  0.0000
C32  C  1.0000  0.06570  0.93167  0.14007  0.0000
C33  C  1.0000  0.19883  0.99668  0.13934  0.0000
C34  C  1.0000  0.26674  0.93056  0.13951  0.0000
C35  C  1.0000  0.39970  -0.00062  0.13994  0.0000
C36  C  1.0000  0.46868  0.93486  0.13990  0.0000
C37  C  1.0000  0.60173  0.00417  0.13999  0.0000
C38  C  1.0000  0.67089  0.94019  0.14062  0.0000
C39  C  1.0000  0.80308  0.00395  0.14130  0.0000
C40  C  1.0000  0.86602  0.93293  0.14156  0.0000
N1  N  1.0000  0.58754  0.39237  0.15245  0.0000
N2  N  1.0000  0.80474  0.60437  0.14958  0.0000
N3  N  1.0000  0.66247  0.73572  0.14496  0.0000
N4  N  1.0000  0.39735  0.39496  0.14137  0.0000
N5  N  1.0000  0.26694  0.52645  0.13991  0.0000
N6  N  1.0000  0.47883  0.74603  0.14009  0.0000
Cr1  Cr  1.0000  0.44870  0.57885  0.13290  0.0000
Y1  Y  1.0000  0.63869  0.56782  0.20930  0.0000
