data_CNCrZn
_audit_creation_method           'pos2cif.pl'
_cell_length_a               12.3170003891
_cell_length_b               12.3170003891315
_cell_length_c               20
_cell_angle_alpha            90
_cell_angle_beta             90
_cell_angle_gamma            120.010002136348
_symmetry_space_group_H-M        'P1'
_symmetry_Int_Tables_number      '1'
_symmetry_cell_setting           'triclinic'
loop_
_symmetry_equiv_pos_as_xyz
x,y,z

loop_
_atom_site_label
_atom_site_type_symbol
_atom_site_occupancy
_atom_site_fract_x
_atom_site_fract_y
_atom_site_fract_z
_atom_site_U_iso_or_equiv
C1  C  1.0000  0.99906  0.19969  0.14238  0.0000
C2  C  1.0000  0.06422  0.13174  0.14204  0.0000
C3  C  1.0000  0.19653  0.19625  0.14204  0.0000
C4  C  1.0000  0.26268  0.12861  0.14200  0.0000
C5  C  1.0000  0.39447  0.19450  0.14239  0.0000
C6  C  1.0000  0.46479  0.13181  0.14277  0.0000
C7  C  1.0000  0.59805  0.20200  0.14317  0.0000
C8  C  1.0000  0.66684  0.13639  0.14308  0.0000
C9  C  1.0000  0.79938  0.20324  0.14300  0.0000
C10  C  1.0000  0.86660  0.13576  0.14260  0.0000
C11  C  1.0000  0.99762  0.39990  0.14316  0.0000
C12  C  1.0000  0.06424  0.33165  0.14270  0.0000
C13  C  1.0000  0.19642  0.39556  0.14267  0.0000
C14  C  1.0000  0.26298  0.32795  0.14249  0.0000
C15  C  1.0000  0.45640  0.32552  0.14311  0.0000
C16  C  1.0000  0.65924  0.33491  0.14379  0.0000
C17  C  1.0000  0.79518  0.40503  0.14386  0.0000
C18  C  1.0000  0.86398  0.33694  0.14333  0.0000
C19  C  1.0000  0.00264  0.60115  0.14338  0.0000
C20  C  1.0000  0.06866  0.53292  0.14335  0.0000
C21  C  1.0000  0.20349  0.59538  0.14343  0.0000
C22  C  1.0000  0.86837  0.53934  0.14394  0.0000
C23  C  1.0000  0.00414  0.80254  0.14243  0.0000
C24  C  1.0000  0.07064  0.73419  0.14297  0.0000
C25  C  1.0000  0.20370  0.79741  0.14308  0.0000
C26  C  1.0000  0.27228  0.72976  0.14360  0.0000
C27  C  1.0000  0.40713  0.80206  0.14390  0.0000
C28  C  1.0000  0.60648  0.80742  0.14379  0.0000
C29  C  1.0000  0.80136  0.80184  0.14272  0.0000
C30  C  1.0000  0.87217  0.73794  0.14291  0.0000
C31  C  1.0000  -0.00003  -0.00080  0.14204  0.0000
C32  C  1.0000  0.06759  0.93350  0.14203  0.0000
C33  C  1.0000  0.19987  0.99729  0.14209  0.0000
C34  C  1.0000  0.26778  0.93102  0.14265  0.0000
C35  C  1.0000  0.40040  0.99920  0.14287  0.0000
C36  C  1.0000  0.46914  0.93425  0.14336  0.0000
C37  C  1.0000  0.60213  0.00330  0.14318  0.0000
C38  C  1.0000  0.67114  0.93856  0.14310  0.0000
C39  C  1.0000  0.80311  0.00398  0.14259  0.0000
C40  C  1.0000  0.86730  0.93411  0.14239  0.0000
N1  N  1.0000  0.58374  0.39030  0.14424  0.0000
N2  N  1.0000  0.81062  0.60987  0.14439  0.0000
N3  N  1.0000  0.66669  0.73536  0.14345  0.0000
N4  N  1.0000  0.39428  0.39234  0.14316  0.0000
N5  N  1.0000  0.26381  0.52544  0.14306  0.0000
N6  N  1.0000  0.47929  0.74504  0.14457  0.0000
Cr1  Cr  1.0000  0.44015  0.57568  0.14474  0.0000
Zn1  Zn  1.0000  0.64025  0.56329  0.14792  0.0000
