data_CNCrZr
_audit_creation_method           'pos2cif.pl'
_cell_length_a               12.3170003891
_cell_length_b               12.3170003891315
_cell_length_c               20
_cell_angle_alpha            90
_cell_angle_beta             90
_cell_angle_gamma            120.010002136348
_symmetry_space_group_H-M        'P1'
_symmetry_Int_Tables_number      '1'
_symmetry_cell_setting           'triclinic'
loop_
_symmetry_equiv_pos_as_xyz
x,y,z

loop_
_atom_site_label
_atom_site_type_symbol
_atom_site_occupancy
_atom_site_fract_x
_atom_site_fract_y
_atom_site_fract_z
_atom_site_U_iso_or_equiv
C1  C  1.0000  0.00142  0.20148  0.14585  0.0000
C2  C  1.0000  0.06750  0.13420  0.14509  0.0000
C3  C  1.0000  0.20016  0.19900  0.14291  0.0000
C4  C  1.0000  0.26428  0.12901  0.14123  0.0000
C5  C  1.0000  0.39623  0.19374  0.13850  0.0000
C6  C  1.0000  0.46580  0.13034  0.13907  0.0000
C7  C  1.0000  0.59919  0.20055  0.13910  0.0000
C8  C  1.0000  0.66807  0.13589  0.14225  0.0000
C9  C  1.0000  0.80085  0.20381  0.14417  0.0000
C10  C  1.0000  0.86863  0.13725  0.14621  0.0000
C11  C  1.0000  -0.00127  0.40076  0.14406  0.0000
C12  C  1.0000  0.06632  0.33329  0.14454  0.0000
C13  C  1.0000  0.19933  0.39822  0.14181  0.0000
C14  C  1.0000  0.26699  0.33108  0.14146  0.0000
C15  C  1.0000  0.46055  0.32455  0.13446  0.0000
C16  C  1.0000  0.66123  0.33311  0.13851  0.0000
C17  C  1.0000  0.79580  0.40463  0.14327  0.0000
C18  C  1.0000  0.86508  0.33732  0.14390  0.0000
C19  C  1.0000  -0.00081  0.60088  0.14480  0.0000
C20  C  1.0000  0.06694  0.53352  0.14284  0.0000
C21  C  1.0000  0.20214  0.59566  0.13977  0.0000
C22  C  1.0000  0.86385  0.53888  0.14716  0.0000
C23  C  1.0000  0.00169  0.80092  0.14586  0.0000
C24  C  1.0000  0.06935  0.73376  0.14434  0.0000
C25  C  1.0000  0.20322  0.79693  0.14171  0.0000
C26  C  1.0000  0.27266  0.72985  0.13946  0.0000
C27  C  1.0000  0.40846  0.80026  0.13926  0.0000
C28  C  1.0000  0.60870  0.80840  0.14584  0.0000
C29  C  1.0000  0.80319  0.80508  0.14938  0.0000
C30  C  1.0000  0.86858  0.73607  0.14937  0.0000
C31  C  1.0000  0.00260  0.00147  0.14579  0.0000
C32  C  1.0000  0.06742  0.93307  0.14452  0.0000
C33  C  1.0000  0.20016  0.99714  0.14237  0.0000
C34  C  1.0000  0.26786  0.93041  0.14145  0.0000
C35  C  1.0000  0.40082  0.99766  0.14077  0.0000
C36  C  1.0000  0.46994  0.93293  0.14150  0.0000
C37  C  1.0000  0.60309  0.00311  0.14307  0.0000
C38  C  1.0000  0.67247  0.93952  0.14641  0.0000
C39  C  1.0000  0.80478  0.00549  0.14763  0.0000
C40  C  1.0000  0.87017  0.93700  0.14763  0.0000
N1  N  1.0000  0.58881  0.39064  0.13430  0.0000
N2  N  1.0000  0.80034  0.60622  0.15349  0.0000
N3  N  1.0000  0.67131  0.74075  0.15237  0.0000
N4  N  1.0000  0.40047  0.39567  0.13450  0.0000
N5  N  1.0000  0.26361  0.52737  0.13696  0.0000
N6  N  1.0000  0.48168  0.74328  0.13668  0.0000
Cr1  Cr  1.0000  0.43637  0.57311  0.11310  0.0000
Zr1  Zr  1.0000  0.60099  0.54787  0.18322  0.0000
