data_CNCu
_audit_creation_method           'pos2cif.pl'
_cell_length_a               12.3170003891
_cell_length_b               12.3170003891315
_cell_length_c               20
_cell_angle_alpha            90
_cell_angle_beta             90
_cell_angle_gamma            120.010002136348
_symmetry_space_group_H-M        'P1'
_symmetry_Int_Tables_number      '1'
_symmetry_cell_setting           'triclinic'
loop_
_symmetry_equiv_pos_as_xyz
x,y,z

loop_
_atom_site_label
_atom_site_type_symbol
_atom_site_occupancy
_atom_site_fract_x
_atom_site_fract_y
_atom_site_fract_z
_atom_site_U_iso_or_equiv
C1  C  1.0000  0.99817  0.19970  0.14195  0.0000
C2  C  1.0000  0.06509  0.13285  0.14154  0.0000
C3  C  1.0000  0.19729  0.19700  0.14183  0.0000
C4  C  1.0000  0.26386  0.12936  0.14199  0.0000
C5  C  1.0000  0.39537  0.19529  0.14272  0.0000
C6  C  1.0000  0.46487  0.13129  0.14310  0.0000
C7  C  1.0000  0.59763  0.20237  0.14352  0.0000
C8  C  1.0000  0.66597  0.13635  0.14330  0.0000
C9  C  1.0000  0.79857  0.20355  0.14299  0.0000
C10  C  1.0000  0.86625  0.13655  0.14231  0.0000
C11  C  1.0000  0.99575  0.39976  0.14318  0.0000
C12  C  1.0000  0.06201  0.33137  0.14255  0.0000
C13  C  1.0000  0.19439  0.39622  0.14287  0.0000
C14  C  1.0000  0.26321  0.32860  0.14265  0.0000
C15  C  1.0000  0.45770  0.32787  0.14345  0.0000
C16  C  1.0000  0.65779  0.33672  0.14392  0.0000
C17  C  1.0000  0.79340  0.40534  0.14387  0.0000
C18  C  1.0000  0.86164  0.33715  0.14334  0.0000
C19  C  1.0000  0.00134  0.60133  0.14359  0.0000
C20  C  1.0000  0.06604  0.53246  0.14354  0.0000
C21  C  1.0000  0.20099  0.59301  0.14367  0.0000
C22  C  1.0000  0.86640  0.54079  0.14387  0.0000
C23  C  1.0000  0.00536  0.80242  0.14262  0.0000
C24  C  1.0000  0.07162  0.73402  0.14313  0.0000
C25  C  1.0000  0.20573  0.79664  0.14316  0.0000
C26  C  1.0000  0.27398  0.72845  0.14372  0.0000
C27  C  1.0000  0.40959  0.79709  0.14395  0.0000
C28  C  1.0000  0.60967  0.80593  0.14393  0.0000
C29  C  1.0000  0.80417  0.80521  0.14313  0.0000
C30  C  1.0000  0.87298  0.73758  0.14321  0.0000
C31  C  1.0000  0.00228  0.00095  0.14161  0.0000
C32  C  1.0000  0.06919  0.93408  0.14186  0.0000
C33  C  1.0000  0.20111  0.99724  0.14199  0.0000
C34  C  1.0000  0.26879  0.93024  0.14269  0.0000
C35  C  1.0000  0.40140  0.99746  0.14309  0.0000
C36  C  1.0000  0.46975  0.93145  0.14356  0.0000
C37  C  1.0000  0.60252  0.00252  0.14339  0.0000
C38  C  1.0000  0.67200  0.93851  0.14322  0.0000
C39  C  1.0000  0.80351  0.00443  0.14244  0.0000
C40  C  1.0000  0.87009  0.93681  0.14220  0.0000
N1  N  1.0000  0.58494  0.39458  0.14424  0.0000
N2  N  1.0000  0.80881  0.61038  0.14395  0.0000
N3  N  1.0000  0.67467  0.74142  0.14408  0.0000
N4  N  1.0000  0.39272  0.39239  0.14350  0.0000
N5  N  1.0000  0.25859  0.52342  0.14358  0.0000
N6  N  1.0000  0.48242  0.73921  0.14446  0.0000
Cu1  Cu  1.0000  0.43528  0.56495  0.14459  0.0000
Cu2  Cu  1.0000  0.63210  0.56884  0.14488  0.0000
