data_CNCuFe
_audit_creation_method           'pos2cif.pl'
_cell_length_a               12.3170003891
_cell_length_b               12.3170003891315
_cell_length_c               20
_cell_angle_alpha            90
_cell_angle_beta             90
_cell_angle_gamma            120.010002136348
_symmetry_space_group_H-M        'P1'
_symmetry_Int_Tables_number      '1'
_symmetry_cell_setting           'triclinic'
loop_
_symmetry_equiv_pos_as_xyz
x,y,z

loop_
_atom_site_label
_atom_site_type_symbol
_atom_site_occupancy
_atom_site_fract_x
_atom_site_fract_y
_atom_site_fract_z
_atom_site_U_iso_or_equiv
C1  C  1.0000  0.99868  0.20020  0.14255  0.0000
C2  C  1.0000  0.06624  0.13414  0.14244  0.0000
C3  C  1.0000  0.19863  0.19854  0.14268  0.0000
C4  C  1.0000  0.26439  0.13001  0.14276  0.0000
C5  C  1.0000  0.39611  0.19581  0.14307  0.0000
C6  C  1.0000  0.46503  0.13088  0.14318  0.0000
C7  C  1.0000  0.59771  0.20157  0.14336  0.0000
C8  C  1.0000  0.66598  0.13550  0.14319  0.0000
C9  C  1.0000  0.79862  0.20340  0.14299  0.0000
C10  C  1.0000  0.86648  0.13664  0.14265  0.0000
C11  C  1.0000  0.99563  0.39994  0.14296  0.0000
C12  C  1.0000  0.06230  0.33178  0.14277  0.0000
C13  C  1.0000  0.19470  0.39688  0.14295  0.0000
C14  C  1.0000  0.26426  0.33039  0.14305  0.0000
C15  C  1.0000  0.45851  0.32814  0.14343  0.0000
C16  C  1.0000  0.65851  0.33549  0.14359  0.0000
C17  C  1.0000  0.79336  0.40512  0.14354  0.0000
C18  C  1.0000  0.86184  0.33703  0.14314  0.0000
C19  C  1.0000  -0.00099  0.60127  0.14321  0.0000
C20  C  1.0000  0.06456  0.53261  0.14308  0.0000
C21  C  1.0000  0.19971  0.59319  0.14317  0.0000
C22  C  1.0000  0.86366  0.54010  0.14357  0.0000
C23  C  1.0000  0.00472  0.80254  0.14287  0.0000
C24  C  1.0000  0.07085  0.73404  0.14308  0.0000
C25  C  1.0000  0.20503  0.79650  0.14310  0.0000
C26  C  1.0000  0.27340  0.72821  0.14330  0.0000
C27  C  1.0000  0.40932  0.79599  0.14351  0.0000
C28  C  1.0000  0.61024  0.80496  0.14351  0.0000
C29  C  1.0000  0.80565  0.80663  0.14311  0.0000
C30  C  1.0000  0.87256  0.73907  0.14328  0.0000
C31  C  1.0000  0.00321  0.00203  0.14240  0.0000
C32  C  1.0000  0.06929  0.93458  0.14254  0.0000
C33  C  1.0000  0.20144  0.99780  0.14268  0.0000
C34  C  1.0000  0.26872  0.93024  0.14298  0.0000
C35  C  1.0000  0.40140  0.99703  0.14316  0.0000
C36  C  1.0000  0.46964  0.93047  0.14335  0.0000
C37  C  1.0000  0.60248  0.00154  0.14322  0.0000
C38  C  1.0000  0.67214  0.93759  0.14311  0.0000
C39  C  1.0000  0.80391  0.00472  0.14270  0.0000
C40  C  1.0000  0.87111  0.93804  0.14261  0.0000
N1  N  1.0000  0.58673  0.39497  0.14366  0.0000
N2  N  1.0000  0.80386  0.61006  0.14402  0.0000
N3  N  1.0000  0.67592  0.74037  0.14355  0.0000
N4  N  1.0000  0.39552  0.39502  0.14356  0.0000
N5  N  1.0000  0.25803  0.52423  0.14315  0.0000
N6  N  1.0000  0.48274  0.73788  0.14375  0.0000
Cu1  Cu  1.0000  0.43383  0.56378  0.14382  0.0000
Fe1  Fe  1.0000  0.63137  0.56418  0.14457  0.0000
