data_CNCuHf
_audit_creation_method           'pos2cif.pl'
_cell_length_a               12.3170003891
_cell_length_b               12.3170003891315
_cell_length_c               20
_cell_angle_alpha            90
_cell_angle_beta             90
_cell_angle_gamma            120.010002136348
_symmetry_space_group_H-M        'P1'
_symmetry_Int_Tables_number      '1'
_symmetry_cell_setting           'triclinic'
loop_
_symmetry_equiv_pos_as_xyz
x,y,z

loop_
_atom_site_label
_atom_site_type_symbol
_atom_site_occupancy
_atom_site_fract_x
_atom_site_fract_y
_atom_site_fract_z
_atom_site_U_iso_or_equiv
C1  C  1.0000  0.00015  0.20059  0.14291  0.0000
C2  C  1.0000  0.06771  0.13485  0.14239  0.0000
C3  C  1.0000  0.20030  0.20005  0.14123  0.0000
C4  C  1.0000  0.26471  0.13008  0.13978  0.0000
C5  C  1.0000  0.39653  0.19546  0.13782  0.0000
C6  C  1.0000  0.46541  0.13056  0.13793  0.0000
C7  C  1.0000  0.59872  0.20034  0.13854  0.0000
C8  C  1.0000  0.66706  0.13485  0.14058  0.0000
C9  C  1.0000  0.79958  0.20282  0.14189  0.0000
C10  C  1.0000  0.86771  0.13648  0.14314  0.0000
C11  C  1.0000  0.99672  0.39979  0.14226  0.0000
C12  C  1.0000  0.06369  0.33186  0.14211  0.0000
C13  C  1.0000  0.19588  0.39735  0.13988  0.0000
C14  C  1.0000  0.26577  0.33189  0.14111  0.0000
C15  C  1.0000  0.46061  0.32746  0.13754  0.0000
C16  C  1.0000  0.66065  0.33261  0.13968  0.0000
C17  C  1.0000  0.79526  0.40437  0.14324  0.0000
C18  C  1.0000  0.86348  0.33624  0.14232  0.0000
C19  C  1.0000  -0.00171  0.60059  0.14493  0.0000
C20  C  1.0000  0.06445  0.53244  0.14213  0.0000
C21  C  1.0000  0.19920  0.59383  0.13922  0.0000
C22  C  1.0000  0.86397  0.53826  0.14755  0.0000
C23  C  1.0000  0.00332  0.80193  0.14559  0.0000
C24  C  1.0000  0.07010  0.73391  0.14442  0.0000
C25  C  1.0000  0.20367  0.79650  0.14167  0.0000
C26  C  1.0000  0.27254  0.72843  0.14027  0.0000
C27  C  1.0000  0.40855  0.79728  0.14122  0.0000
C28  C  1.0000  0.61007  0.80795  0.14711  0.0000
C29  C  1.0000  0.80624  0.80687  0.14917  0.0000
C30  C  1.0000  0.87090  0.73806  0.14955  0.0000
C31  C  1.0000  0.00373  0.00241  0.14352  0.0000
C32  C  1.0000  0.06861  0.93398  0.14311  0.0000
C33  C  1.0000  0.20118  0.99798  0.14093  0.0000
C34  C  1.0000  0.26837  0.93047  0.14052  0.0000
C35  C  1.0000  0.40103  0.99721  0.13941  0.0000
C36  C  1.0000  0.46970  0.93100  0.14086  0.0000
C37  C  1.0000  0.60263  0.00185  0.14174  0.0000
C38  C  1.0000  0.67265  0.93891  0.14479  0.0000
C39  C  1.0000  0.80494  0.00519  0.14491  0.0000
C40  C  1.0000  0.87185  0.93835  0.14586  0.0000
N1  N  1.0000  0.58897  0.39152  0.13878  0.0000
N2  N  1.0000  0.80147  0.60717  0.15448  0.0000
N3  N  1.0000  0.67516  0.74322  0.15325  0.0000
N4  N  1.0000  0.39985  0.39863  0.13940  0.0000
N5  N  1.0000  0.25748  0.52482  0.13551  0.0000
N6  N  1.0000  0.48312  0.74020  0.14280  0.0000
Cu1  Cu  1.0000  0.43080  0.56884  0.13292  0.0000
Hf1  Hf  1.0000  0.61423  0.55569  0.18196  0.0000
