data_CNCuHg
_audit_creation_method           'pos2cif.pl'
_cell_length_a               12.3170003891
_cell_length_b               12.3170003891315
_cell_length_c               20
_cell_angle_alpha            90
_cell_angle_beta             90
_cell_angle_gamma            120.010002136348
_symmetry_space_group_H-M        'P1'
_symmetry_Int_Tables_number      '1'
_symmetry_cell_setting           'triclinic'
loop_
_symmetry_equiv_pos_as_xyz
x,y,z

loop_
_atom_site_label
_atom_site_type_symbol
_atom_site_occupancy
_atom_site_fract_x
_atom_site_fract_y
_atom_site_fract_z
_atom_site_U_iso_or_equiv
C1  C  1.0000  0.00003  0.19999  0.14029  0.0000
C2  C  1.0000  0.06597  0.13215  0.14008  0.0000
C3  C  1.0000  0.19932  0.19756  0.14032  0.0000
C4  C  1.0000  0.26516  0.12948  0.13979  0.0000
C5  C  1.0000  0.39711  0.19638  0.13980  0.0000
C6  C  1.0000  0.46575  0.13165  0.13967  0.0000
C7  C  1.0000  0.59851  0.20193  0.14002  0.0000
C8  C  1.0000  0.66728  0.13708  0.13980  0.0000
C9  C  1.0000  0.80011  0.20368  0.14031  0.0000
C10  C  1.0000  0.86796  0.13710  0.13997  0.0000
C11  C  1.0000  0.99831  0.40029  0.14165  0.0000
C12  C  1.0000  0.06505  0.33231  0.14104  0.0000
C13  C  1.0000  0.19812  0.39820  0.14206  0.0000
C14  C  1.0000  0.26837  0.33024  0.14120  0.0000
C15  C  1.0000  0.46400  0.33064  0.14044  0.0000
C16  C  1.0000  0.65797  0.33621  0.14094  0.0000
C17  C  1.0000  0.79520  0.40470  0.14156  0.0000
C18  C  1.0000  0.86331  0.33744  0.14123  0.0000
C19  C  1.0000  0.00227  0.60085  0.14165  0.0000
C20  C  1.0000  0.06825  0.53262  0.14211  0.0000
C21  C  1.0000  0.20331  0.59369  0.14264  0.0000
C22  C  1.0000  0.86721  0.54019  0.14172  0.0000
C23  C  1.0000  0.00227  0.79972  0.14002  0.0000
C24  C  1.0000  0.07049  0.73312  0.14102  0.0000
C25  C  1.0000  0.20546  0.79644  0.14083  0.0000
C26  C  1.0000  0.27403  0.72907  0.14138  0.0000
C27  C  1.0000  0.40989  0.79862  0.14009  0.0000
C28  C  1.0000  0.60994  0.80892  0.13779  0.0000
C29  C  1.0000  0.79618  0.79958  0.13860  0.0000
C30  C  1.0000  0.86736  0.73046  0.13990  0.0000
C31  C  1.0000  0.00093  -0.00078  0.13966  0.0000
C32  C  1.0000  0.06777  0.93215  0.13968  0.0000
C33  C  1.0000  0.20042  0.99637  0.13970  0.0000
C34  C  1.0000  0.26855  0.92999  0.13993  0.0000
C35  C  1.0000  0.40136  0.99783  0.13968  0.0000
C36  C  1.0000  0.47023  0.93304  0.13958  0.0000
C37  C  1.0000  0.60307  0.00404  0.13919  0.0000
C38  C  1.0000  0.67256  0.94063  0.13852  0.0000
C39  C  1.0000  0.80390  0.00424  0.13913  0.0000
C40  C  1.0000  0.86752  0.93373  0.13922  0.0000
N1  N  1.0000  0.58957  0.39551  0.14135  0.0000
N2  N  1.0000  0.80584  0.60573  0.14150  0.0000
N3  N  1.0000  0.66880  0.74025  0.13700  0.0000
N4  N  1.0000  0.39709  0.39515  0.14086  0.0000
N5  N  1.0000  0.26224  0.52466  0.14405  0.0000
N6  N  1.0000  0.48192  0.74192  0.13900  0.0000
Cu1  Cu  1.0000  0.44867  0.57172  0.14639  0.0000
Hg1  Hg  1.0000  0.59244  0.56466  0.26960  0.0000
