data_CNCuIr
_audit_creation_method           'pos2cif.pl'
_cell_length_a               12.3170003891
_cell_length_b               12.3170003891315
_cell_length_c               20
_cell_angle_alpha            90
_cell_angle_beta             90
_cell_angle_gamma            120.010002136348
_symmetry_space_group_H-M        'P1'
_symmetry_Int_Tables_number      '1'
_symmetry_cell_setting           'triclinic'
loop_
_symmetry_equiv_pos_as_xyz
x,y,z

loop_
_atom_site_label
_atom_site_type_symbol
_atom_site_occupancy
_atom_site_fract_x
_atom_site_fract_y
_atom_site_fract_z
_atom_site_U_iso_or_equiv
C1  C  1.0000  0.99856  0.20088  0.14181  0.0000
C2  C  1.0000  0.06632  0.13470  0.14140  0.0000
C3  C  1.0000  0.19838  0.19806  0.14179  0.0000
C4  C  1.0000  0.26355  0.12882  0.14190  0.0000
C5  C  1.0000  0.39464  0.19305  0.14275  0.0000
C6  C  1.0000  0.46437  0.12918  0.14306  0.0000
C7  C  1.0000  0.59702  0.20019  0.14351  0.0000
C8  C  1.0000  0.66581  0.13521  0.14320  0.0000
C9  C  1.0000  0.79840  0.20397  0.14289  0.0000
C10  C  1.0000  0.86664  0.13780  0.14214  0.0000
C11  C  1.0000  0.99537  0.40053  0.14318  0.0000
C12  C  1.0000  0.06175  0.33207  0.14251  0.0000
C13  C  1.0000  0.19413  0.39701  0.14293  0.0000
C14  C  1.0000  0.26424  0.32981  0.14278  0.0000
C15  C  1.0000  0.45601  0.32427  0.14368  0.0000
C16  C  1.0000  0.65726  0.33342  0.14404  0.0000
C17  C  1.0000  0.79266  0.40535  0.14395  0.0000
C18  C  1.0000  0.86110  0.33774  0.14333  0.0000
C19  C  1.0000  -0.00079  0.60163  0.14368  0.0000
C20  C  1.0000  0.06443  0.53274  0.14360  0.0000
C21  C  1.0000  0.19948  0.59311  0.14374  0.0000
C22  C  1.0000  0.86413  0.54082  0.14399  0.0000
C23  C  1.0000  0.00627  0.80336  0.14255  0.0000
C24  C  1.0000  0.07146  0.73401  0.14315  0.0000
C25  C  1.0000  0.20571  0.79611  0.14315  0.0000
C26  C  1.0000  0.27390  0.72795  0.14379  0.0000
C27  C  1.0000  0.41013  0.79571  0.14397  0.0000
C28  C  1.0000  0.61123  0.80651  0.14391  0.0000
C29  C  1.0000  0.80785  0.80985  0.14309  0.0000
C30  C  1.0000  0.87500  0.74120  0.14321  0.0000
C31  C  1.0000  0.00418  0.00316  0.14144  0.0000
C32  C  1.0000  0.06992  0.93515  0.14171  0.0000
C33  C  1.0000  0.20137  0.99707  0.14183  0.0000
C34  C  1.0000  0.26873  0.92947  0.14257  0.0000
C35  C  1.0000  0.40123  0.99576  0.14296  0.0000
C36  C  1.0000  0.46981  0.92998  0.14345  0.0000
C37  C  1.0000  0.60269  0.00169  0.14324  0.0000
C38  C  1.0000  0.67302  0.93891  0.14306  0.0000
C39  C  1.0000  0.80442  0.00611  0.14227  0.0000
C40  C  1.0000  0.87225  0.93995  0.14207  0.0000
N1  N  1.0000  0.58369  0.38989  0.14453  0.0000
N2  N  1.0000  0.80695  0.61334  0.14412  0.0000
N3  N  1.0000  0.67889  0.74416  0.14414  0.0000
N4  N  1.0000  0.39397  0.39266  0.14384  0.0000
N5  N  1.0000  0.25707  0.52361  0.14367  0.0000
N6  N  1.0000  0.48388  0.73847  0.14456  0.0000
Cu1  Cu  1.0000  0.43106  0.56288  0.14480  0.0000
Ir1  Ir  1.0000  0.62890  0.56384  0.14496  0.0000
