data_CNCuMn
_audit_creation_method           'pos2cif.pl'
_cell_length_a               12.3170003891
_cell_length_b               12.3170003891315
_cell_length_c               20
_cell_angle_alpha            90
_cell_angle_beta             90
_cell_angle_gamma            120.010002136348
_symmetry_space_group_H-M        'P1'
_symmetry_Int_Tables_number      '1'
_symmetry_cell_setting           'triclinic'
loop_
_symmetry_equiv_pos_as_xyz
x,y,z

loop_
_atom_site_label
_atom_site_type_symbol
_atom_site_occupancy
_atom_site_fract_x
_atom_site_fract_y
_atom_site_fract_z
_atom_site_U_iso_or_equiv
C1  C  1.0000  0.99889  0.20012  0.14240  0.0000
C2  C  1.0000  0.06633  0.13414  0.14226  0.0000
C3  C  1.0000  0.19872  0.19866  0.14253  0.0000
C4  C  1.0000  0.26431  0.13000  0.14266  0.0000
C5  C  1.0000  0.39608  0.19583  0.14309  0.0000
C6  C  1.0000  0.46498  0.13084  0.14323  0.0000
C7  C  1.0000  0.59788  0.20131  0.14339  0.0000
C8  C  1.0000  0.66613  0.13537  0.14316  0.0000
C9  C  1.0000  0.79875  0.20312  0.14294  0.0000
C10  C  1.0000  0.86662  0.13643  0.14256  0.0000
C11  C  1.0000  0.99594  0.39973  0.14301  0.0000
C12  C  1.0000  0.06257  0.33163  0.14271  0.0000
C13  C  1.0000  0.19487  0.39665  0.14294  0.0000
C14  C  1.0000  0.26410  0.33041  0.14295  0.0000
C15  C  1.0000  0.45856  0.32808  0.14351  0.0000
C16  C  1.0000  0.65902  0.33461  0.14368  0.0000
C17  C  1.0000  0.79393  0.40470  0.14354  0.0000
C18  C  1.0000  0.86230  0.33667  0.14314  0.0000
C19  C  1.0000  -0.00075  0.60098  0.14330  0.0000
C20  C  1.0000  0.06486  0.53241  0.14321  0.0000
C21  C  1.0000  0.19989  0.59333  0.14335  0.0000
C22  C  1.0000  0.86438  0.53933  0.14353  0.0000
C23  C  1.0000  0.00442  0.80239  0.14287  0.0000
C24  C  1.0000  0.07073  0.73397  0.14311  0.0000
C25  C  1.0000  0.20459  0.79646  0.14316  0.0000
C26  C  1.0000  0.27307  0.72818  0.14346  0.0000
C27  C  1.0000  0.40885  0.79628  0.14360  0.0000
C28  C  1.0000  0.61003  0.80609  0.14358  0.0000
C29  C  1.0000  0.80589  0.80675  0.14313  0.0000
C30  C  1.0000  0.87220  0.73901  0.14318  0.0000
C31  C  1.0000  0.00319  0.00199  0.14230  0.0000
C32  C  1.0000  0.06903  0.93438  0.14249  0.0000
C33  C  1.0000  0.20133  0.99784  0.14261  0.0000
C34  C  1.0000  0.26855  0.93033  0.14297  0.0000
C35  C  1.0000  0.40120  0.99714  0.14317  0.0000
C36  C  1.0000  0.46946  0.93054  0.14336  0.0000
C37  C  1.0000  0.60230  0.00166  0.14320  0.0000
C38  C  1.0000  0.67207  0.93809  0.14310  0.0000
C39  C  1.0000  0.80404  0.00479  0.14266  0.0000
C40  C  1.0000  0.87120  0.93811  0.14258  0.0000
N1  N  1.0000  0.58696  0.39364  0.14398  0.0000
N2  N  1.0000  0.80422  0.60918  0.14364  0.0000
N3  N  1.0000  0.67543  0.74181  0.14371  0.0000
N4  N  1.0000  0.39595  0.39559  0.14350  0.0000
N5  N  1.0000  0.25830  0.52430  0.14332  0.0000
N6  N  1.0000  0.48255  0.73831  0.14390  0.0000
Cu1  Cu  1.0000  0.43276  0.56489  0.14396  0.0000
Mn1  Mn  1.0000  0.63037  0.56504  0.14431  0.0000
