data_CNCuMo
_audit_creation_method           'pos2cif.pl'
_cell_length_a               12.3170003891
_cell_length_b               12.3170003891315
_cell_length_c               20
_cell_angle_alpha            90
_cell_angle_beta             90
_cell_angle_gamma            120.010002136348
_symmetry_space_group_H-M        'P1'
_symmetry_Int_Tables_number      '1'
_symmetry_cell_setting           'triclinic'
loop_
_symmetry_equiv_pos_as_xyz
x,y,z

loop_
_atom_site_label
_atom_site_type_symbol
_atom_site_occupancy
_atom_site_fract_x
_atom_site_fract_y
_atom_site_fract_z
_atom_site_U_iso_or_equiv
C1  C  1.0000  -0.00050  0.20065  0.13927  0.0000
C2  C  1.0000  0.06680  0.13446  0.13728  0.0000
C3  C  1.0000  0.19917  0.19875  0.13649  0.0000
C4  C  1.0000  0.26392  0.12923  0.13539  0.0000
C5  C  1.0000  0.39544  0.19409  0.13612  0.0000
C6  C  1.0000  0.46489  0.12990  0.13776  0.0000
C7  C  1.0000  0.59795  0.19986  0.14010  0.0000
C8  C  1.0000  0.66668  0.13510  0.14090  0.0000
C9  C  1.0000  0.79927  0.20340  0.14185  0.0000
C10  C  1.0000  0.86739  0.13711  0.14094  0.0000
C11  C  1.0000  0.99632  0.40005  0.14223  0.0000
C12  C  1.0000  0.06299  0.33193  0.13974  0.0000
C13  C  1.0000  0.19529  0.39716  0.13818  0.0000
C14  C  1.0000  0.26521  0.33071  0.13840  0.0000
C15  C  1.0000  0.45800  0.32555  0.14037  0.0000
C16  C  1.0000  0.65901  0.33210  0.14474  0.0000
C17  C  1.0000  0.79405  0.40438  0.14717  0.0000
C18  C  1.0000  0.86264  0.33689  0.14370  0.0000
C19  C  1.0000  -0.00094  0.60099  0.14545  0.0000
C20  C  1.0000  0.06473  0.53256  0.14280  0.0000
C21  C  1.0000  0.19951  0.59347  0.14040  0.0000
C22  C  1.0000  0.86462  0.53955  0.14994  0.0000
C23  C  1.0000  0.00425  0.80250  0.14308  0.0000
C24  C  1.0000  0.07048  0.73395  0.14308  0.0000
C25  C  1.0000  0.20446  0.79632  0.14056  0.0000
C26  C  1.0000  0.27315  0.72836  0.14137  0.0000
C27  C  1.0000  0.40919  0.79701  0.14351  0.0000
C28  C  1.0000  0.61066  0.80857  0.15007  0.0000
C29  C  1.0000  0.80643  0.80836  0.14992  0.0000
C30  C  1.0000  0.87260  0.73957  0.14949  0.0000
C31  C  1.0000  0.00352  0.00238  0.13871  0.0000
C32  C  1.0000  0.06887  0.93426  0.13873  0.0000
C33  C  1.0000  0.20090  0.99720  0.13659  0.0000
C34  C  1.0000  0.26829  0.92991  0.13818  0.0000
C35  C  1.0000  0.40099  0.99660  0.13851  0.0000
C36  C  1.0000  0.46962  0.93090  0.14145  0.0000
C37  C  1.0000  0.60260  0.00203  0.14185  0.0000
C38  C  1.0000  0.67286  0.93954  0.14450  0.0000
C39  C  1.0000  0.80470  0.00571  0.14281  0.0000
C40  C  1.0000  0.87174  0.93882  0.14304  0.0000
N1  N  1.0000  0.58541  0.38793  0.14888  0.0000
N2  N  1.0000  0.80588  0.61050  0.15603  0.0000
N3  N  1.0000  0.67695  0.74605  0.15814  0.0000
N4  N  1.0000  0.39682  0.39504  0.14093  0.0000
N5  N  1.0000  0.25749  0.52440  0.13707  0.0000
N6  N  1.0000  0.48337  0.74039  0.14798  0.0000
Cu1  Cu  1.0000  0.43125  0.56715  0.14232  0.0000
Mo1  Mo  1.0000  0.62210  0.55980  0.17595  0.0000
