data_CNCuNb
_audit_creation_method           'pos2cif.pl'
_cell_length_a               12.3170003891
_cell_length_b               12.3170003891315
_cell_length_c               20
_cell_angle_alpha            90
_cell_angle_beta             90
_cell_angle_gamma            120.010002136348
_symmetry_space_group_H-M        'P1'
_symmetry_Int_Tables_number      '1'
_symmetry_cell_setting           'triclinic'
loop_
_symmetry_equiv_pos_as_xyz
x,y,z

loop_
_atom_site_label
_atom_site_type_symbol
_atom_site_occupancy
_atom_site_fract_x
_atom_site_fract_y
_atom_site_fract_z
_atom_site_U_iso_or_equiv
C1  C  1.0000  -0.00070  0.20028  0.13998  0.0000
C2  C  1.0000  0.06654  0.13416  0.13894  0.0000
C3  C  1.0000  0.19900  0.19895  0.13792  0.0000
C4  C  1.0000  0.26434  0.12986  0.13711  0.0000
C5  C  1.0000  0.39603  0.19549  0.13679  0.0000
C6  C  1.0000  0.46522  0.13097  0.13807  0.0000
C7  C  1.0000  0.59852  0.20133  0.13933  0.0000
C8  C  1.0000  0.66673  0.13537  0.14050  0.0000
C9  C  1.0000  0.79913  0.20315  0.14129  0.0000
C10  C  1.0000  0.86704  0.13644  0.14113  0.0000
C11  C  1.0000  0.99630  0.39998  0.14175  0.0000
C12  C  1.0000  0.06298  0.33179  0.13995  0.0000
C13  C  1.0000  0.19515  0.39709  0.13853  0.0000
C14  C  1.0000  0.26457  0.33061  0.13810  0.0000
C15  C  1.0000  0.45897  0.32797  0.13793  0.0000
C16  C  1.0000  0.65978  0.33396  0.14196  0.0000
C17  C  1.0000  0.79464  0.40499  0.14529  0.0000
C18  C  1.0000  0.86276  0.33672  0.14264  0.0000
C19  C  1.0000  -0.00122  0.60096  0.14524  0.0000
C20  C  1.0000  0.06471  0.53253  0.14221  0.0000
C21  C  1.0000  0.19973  0.59365  0.14033  0.0000
C22  C  1.0000  0.86466  0.53917  0.14953  0.0000
C23  C  1.0000  0.00397  0.80223  0.14399  0.0000
C24  C  1.0000  0.07066  0.73416  0.14396  0.0000
C25  C  1.0000  0.20427  0.79649  0.14137  0.0000
C26  C  1.0000  0.27304  0.72847  0.14114  0.0000
C27  C  1.0000  0.40907  0.79724  0.14230  0.0000
C28  C  1.0000  0.60978  0.80687  0.14811  0.0000
C29  C  1.0000  0.80587  0.80657  0.14914  0.0000
C30  C  1.0000  0.87204  0.73900  0.14980  0.0000
C31  C  1.0000  0.00308  0.00186  0.14030  0.0000
C32  C  1.0000  0.06873  0.93404  0.14021  0.0000
C33  C  1.0000  0.20115  0.99769  0.13840  0.0000
C34  C  1.0000  0.26859  0.93054  0.13947  0.0000
C35  C  1.0000  0.40128  0.99746  0.13927  0.0000
C36  C  1.0000  0.46981  0.93116  0.14119  0.0000
C37  C  1.0000  0.60260  0.00191  0.14156  0.0000
C38  C  1.0000  0.67236  0.93836  0.14414  0.0000
C39  C  1.0000  0.80441  0.00493  0.14303  0.0000
C40  C  1.0000  0.87121  0.93790  0.14356  0.0000
N1  N  1.0000  0.58710  0.39257  0.14297  0.0000
N2  N  1.0000  0.80424  0.60949  0.15919  0.0000
N3  N  1.0000  0.67560  0.74230  0.15606  0.0000
N4  N  1.0000  0.39685  0.39620  0.13719  0.0000
N5  N  1.0000  0.25802  0.52456  0.13802  0.0000
N6  N  1.0000  0.48299  0.73983  0.14500  0.0000
Cu1  Cu  1.0000  0.43308  0.56640  0.13912  0.0000
Nb1  Nb  1.0000  0.62231  0.55751  0.18891  0.0000
