data_CNCuNi
_audit_creation_method           'pos2cif.pl'
_cell_length_a               12.3170003891
_cell_length_b               12.3170003891315
_cell_length_c               20
_cell_angle_alpha            90
_cell_angle_beta             90
_cell_angle_gamma            120.010002136348
_symmetry_space_group_H-M        'P1'
_symmetry_Int_Tables_number      '1'
_symmetry_cell_setting           'triclinic'
loop_
_symmetry_equiv_pos_as_xyz
x,y,z

loop_
_atom_site_label
_atom_site_type_symbol
_atom_site_occupancy
_atom_site_fract_x
_atom_site_fract_y
_atom_site_fract_z
_atom_site_U_iso_or_equiv
C1  C  1.0000  0.99839  0.20001  0.14262  0.0000
C2  C  1.0000  0.06567  0.13349  0.14259  0.0000
C3  C  1.0000  0.19806  0.19794  0.14279  0.0000
C4  C  1.0000  0.26450  0.13013  0.14290  0.0000
C5  C  1.0000  0.39626  0.19635  0.14320  0.0000
C6  C  1.0000  0.46505  0.13137  0.14325  0.0000
C7  C  1.0000  0.59763  0.20238  0.14339  0.0000
C8  C  1.0000  0.66580  0.13589  0.14314  0.0000
C9  C  1.0000  0.79845  0.20340  0.14296  0.0000
C10  C  1.0000  0.86626  0.13655  0.14271  0.0000
C11  C  1.0000  0.99552  0.39985  0.14286  0.0000
C12  C  1.0000  0.06216  0.33170  0.14269  0.0000
C13  C  1.0000  0.19465  0.39667  0.14280  0.0000
C14  C  1.0000  0.26383  0.32979  0.14299  0.0000
C15  C  1.0000  0.45893  0.32933  0.14358  0.0000
C16  C  1.0000  0.65813  0.33697  0.14370  0.0000
C17  C  1.0000  0.79315  0.40530  0.14348  0.0000
C18  C  1.0000  0.86157  0.33710  0.14309  0.0000
C19  C  1.0000  -0.00031  0.60131  0.14305  0.0000
C20  C  1.0000  0.06504  0.53256  0.14292  0.0000
C21  C  1.0000  0.20037  0.59314  0.14298  0.0000
C22  C  1.0000  0.86405  0.54039  0.14340  0.0000
C23  C  1.0000  0.00473  0.80226  0.14290  0.0000
C24  C  1.0000  0.07105  0.73402  0.14295  0.0000
C25  C  1.0000  0.20530  0.79659  0.14297  0.0000
C26  C  1.0000  0.27365  0.72827  0.14314  0.0000
C27  C  1.0000  0.40941  0.79600  0.14341  0.0000
C28  C  1.0000  0.61004  0.80423  0.14356  0.0000
C29  C  1.0000  0.80455  0.80544  0.14323  0.0000
C30  C  1.0000  0.87227  0.73816  0.14320  0.0000
C31  C  1.0000  0.00255  0.00140  0.14261  0.0000
C32  C  1.0000  0.06914  0.93431  0.14272  0.0000
C33  C  1.0000  0.20137  0.99769  0.14281  0.0000
C34  C  1.0000  0.26881  0.93032  0.14296  0.0000
C35  C  1.0000  0.40148  0.99722  0.14313  0.0000
C36  C  1.0000  0.46969  0.93067  0.14325  0.0000
C37  C  1.0000  0.60245  0.00171  0.14315  0.0000
C38  C  1.0000  0.67196  0.93735  0.14309  0.0000
C39  C  1.0000  0.80351  0.00431  0.14280  0.0000
C40  C  1.0000  0.87028  0.93710  0.14278  0.0000
N1  N  1.0000  0.58675  0.39688  0.14411  0.0000
N2  N  1.0000  0.80509  0.61007  0.14357  0.0000
N3  N  1.0000  0.67502  0.73898  0.14383  0.0000
N4  N  1.0000  0.39425  0.39434  0.14348  0.0000
N5  N  1.0000  0.25869  0.52404  0.14298  0.0000
N6  N  1.0000  0.48246  0.73756  0.14377  0.0000
Cu1  Cu  1.0000  0.43585  0.56395  0.14387  0.0000
Ni1  Ni  1.0000  0.63352  0.56662  0.14457  0.0000
