data_CNCuOs
_audit_creation_method           'pos2cif.pl'
_cell_length_a               12.3170003891
_cell_length_b               12.3170003891315
_cell_length_c               20
_cell_angle_alpha            90
_cell_angle_beta             90
_cell_angle_gamma            120.010002136348
_symmetry_space_group_H-M        'P1'
_symmetry_Int_Tables_number      '1'
_symmetry_cell_setting           'triclinic'
loop_
_symmetry_equiv_pos_as_xyz
x,y,z

loop_
_atom_site_label
_atom_site_type_symbol
_atom_site_occupancy
_atom_site_fract_x
_atom_site_fract_y
_atom_site_fract_z
_atom_site_U_iso_or_equiv
C1  C  1.0000  0.99934  0.20119  0.14346  0.0000
C2  C  1.0000  0.06688  0.13503  0.14169  0.0000
C3  C  1.0000  0.19902  0.19851  0.13965  0.0000
C4  C  1.0000  0.26354  0.12866  0.13817  0.0000
C5  C  1.0000  0.39458  0.19252  0.13770  0.0000
C6  C  1.0000  0.46446  0.12883  0.13932  0.0000
C7  C  1.0000  0.59747  0.19982  0.14158  0.0000
C8  C  1.0000  0.66632  0.13513  0.14329  0.0000
C9  C  1.0000  0.79891  0.20408  0.14457  0.0000
C10  C  1.0000  0.86728  0.13796  0.14484  0.0000
C11  C  1.0000  0.99592  0.40070  0.14359  0.0000
C12  C  1.0000  0.06273  0.33252  0.14261  0.0000
C13  C  1.0000  0.19502  0.39752  0.13960  0.0000
C14  C  1.0000  0.26521  0.33039  0.13966  0.0000
C15  C  1.0000  0.45603  0.32342  0.13991  0.0000
C16  C  1.0000  0.65789  0.33233  0.14407  0.0000
C17  C  1.0000  0.79297  0.40524  0.14607  0.0000
C18  C  1.0000  0.86176  0.33770  0.14485  0.0000
C19  C  1.0000  -0.00188  0.60139  0.14442  0.0000
C20  C  1.0000  0.06429  0.53288  0.14275  0.0000
C21  C  1.0000  0.19941  0.59345  0.13966  0.0000
C22  C  1.0000  0.86344  0.54040  0.14743  0.0000
C23  C  1.0000  0.00527  0.80319  0.14383  0.0000
C24  C  1.0000  0.07075  0.73400  0.14272  0.0000
C25  C  1.0000  0.20484  0.79583  0.14047  0.0000
C26  C  1.0000  0.27353  0.72803  0.14008  0.0000
C27  C  1.0000  0.41000  0.79632  0.14172  0.0000
C28  C  1.0000  0.61095  0.80707  0.14785  0.0000
C29  C  1.0000  0.80761  0.80994  0.14928  0.0000
C30  C  1.0000  0.87426  0.74175  0.14836  0.0000
C31  C  1.0000  0.00411  0.00327  0.14273  0.0000
C32  C  1.0000  0.06945  0.93496  0.14153  0.0000
C33  C  1.0000  0.20096  0.99680  0.13922  0.0000
C34  C  1.0000  0.26839  0.92938  0.13941  0.0000
C35  C  1.0000  0.40111  0.99589  0.13978  0.0000
C36  C  1.0000  0.46999  0.93030  0.14188  0.0000
C37  C  1.0000  0.60278  0.00165  0.14368  0.0000
C38  C  1.0000  0.67310  0.93898  0.14628  0.0000
C39  C  1.0000  0.80485  0.00647  0.14613  0.0000
C40  C  1.0000  0.87234  0.94030  0.14596  0.0000
N1  N  1.0000  0.58375  0.38861  0.14583  0.0000
N2  N  1.0000  0.80429  0.61303  0.15145  0.0000
N3  N  1.0000  0.67826  0.74357  0.15269  0.0000
N4  N  1.0000  0.39574  0.39309  0.13975  0.0000
N5  N  1.0000  0.25741  0.52410  0.13622  0.0000
N6  N  1.0000  0.48401  0.73961  0.14372  0.0000
Cu1  Cu  1.0000  0.43239  0.56482  0.13517  0.0000
Os1  Os  1.0000  0.62627  0.56051  0.15732  0.0000
