data_CNCuPd
_audit_creation_method           'pos2cif.pl'
_cell_length_a               12.3170003891
_cell_length_b               12.3170003891315
_cell_length_c               20
_cell_angle_alpha            90
_cell_angle_beta             90
_cell_angle_gamma            120.010002136348
_symmetry_space_group_H-M        'P1'
_symmetry_Int_Tables_number      '1'
_symmetry_cell_setting           'triclinic'
loop_
_symmetry_equiv_pos_as_xyz
x,y,z

loop_
_atom_site_label
_atom_site_type_symbol
_atom_site_occupancy
_atom_site_fract_x
_atom_site_fract_y
_atom_site_fract_z
_atom_site_U_iso_or_equiv
C1  C  1.0000  0.99862  0.20028  0.14215  0.0000
C2  C  1.0000  0.06612  0.13413  0.14191  0.0000
C3  C  1.0000  0.19820  0.19801  0.14223  0.0000
C4  C  1.0000  0.26371  0.12922  0.14236  0.0000
C5  C  1.0000  0.39499  0.19425  0.14298  0.0000
C6  C  1.0000  0.46467  0.13028  0.14319  0.0000
C7  C  1.0000  0.59738  0.20082  0.14349  0.0000
C8  C  1.0000  0.66601  0.13555  0.14316  0.0000
C9  C  1.0000  0.79868  0.20353  0.14290  0.0000
C10  C  1.0000  0.86664  0.13709  0.14236  0.0000
C11  C  1.0000  0.99564  0.39984  0.14301  0.0000
C12  C  1.0000  0.06211  0.33168  0.14257  0.0000
C13  C  1.0000  0.19435  0.39620  0.14286  0.0000
C14  C  1.0000  0.26355  0.32963  0.14287  0.0000
C15  C  1.0000  0.45707  0.32614  0.14371  0.0000
C16  C  1.0000  0.65804  0.33454  0.14396  0.0000
C17  C  1.0000  0.79331  0.40492  0.14376  0.0000
C18  C  1.0000  0.86188  0.33711  0.14322  0.0000
C19  C  1.0000  0.00026  0.60134  0.14335  0.0000
C20  C  1.0000  0.06519  0.53256  0.14326  0.0000
C21  C  1.0000  0.20013  0.59310  0.14337  0.0000
C22  C  1.0000  0.86500  0.54023  0.14369  0.0000
C23  C  1.0000  0.00560  0.80303  0.14273  0.0000
C24  C  1.0000  0.07129  0.73411  0.14303  0.0000
C25  C  1.0000  0.20531  0.79645  0.14304  0.0000
C26  C  1.0000  0.27371  0.72821  0.14346  0.0000
C27  C  1.0000  0.40941  0.79599  0.14370  0.0000
C28  C  1.0000  0.61055  0.80669  0.14378  0.0000
C29  C  1.0000  0.80653  0.80793  0.14318  0.0000
C30  C  1.0000  0.87363  0.73981  0.14322  0.0000
C31  C  1.0000  0.00345  0.00236  0.14197  0.0000
C32  C  1.0000  0.06946  0.93467  0.14219  0.0000
C33  C  1.0000  0.20125  0.99739  0.14229  0.0000
C34  C  1.0000  0.26863  0.92998  0.14276  0.0000
C35  C  1.0000  0.40117  0.99652  0.14306  0.0000
C36  C  1.0000  0.46961  0.93043  0.14336  0.0000
C37  C  1.0000  0.60251  0.00205  0.14317  0.0000
C38  C  1.0000  0.67245  0.93894  0.14304  0.0000
C39  C  1.0000  0.80406  0.00527  0.14246  0.0000
C40  C  1.0000  0.87166  0.93896  0.14237  0.0000
N1  N  1.0000  0.58424  0.39019  0.14446  0.0000
N2  N  1.0000  0.80870  0.61166  0.14381  0.0000
N3  N  1.0000  0.67743  0.74504  0.14407  0.0000
N4  N  1.0000  0.39444  0.39388  0.14374  0.0000
N5  N  1.0000  0.25789  0.52374  0.14334  0.0000
N6  N  1.0000  0.48296  0.73811  0.14424  0.0000
Cu1  Cu  1.0000  0.43113  0.56355  0.14439  0.0000
Pd1  Pd  1.0000  0.62838  0.56575  0.14473  0.0000
