data_CNCuPt
_audit_creation_method           'pos2cif.pl'
_cell_length_a               12.3170003891
_cell_length_b               12.3170003891315
_cell_length_c               20
_cell_angle_alpha            90
_cell_angle_beta             90
_cell_angle_gamma            120.010002136348
_symmetry_space_group_H-M        'P1'
_symmetry_Int_Tables_number      '1'
_symmetry_cell_setting           'triclinic'
loop_
_symmetry_equiv_pos_as_xyz
x,y,z

loop_
_atom_site_label
_atom_site_type_symbol
_atom_site_occupancy
_atom_site_fract_x
_atom_site_fract_y
_atom_site_fract_z
_atom_site_U_iso_or_equiv
C1  C  1.0000  0.99841  0.20046  0.14178  0.0000
C2  C  1.0000  0.06606  0.13439  0.14133  0.0000
C3  C  1.0000  0.19793  0.19784  0.14173  0.0000
C4  C  1.0000  0.26346  0.12899  0.14189  0.0000
C5  C  1.0000  0.39462  0.19364  0.14278  0.0000
C6  C  1.0000  0.46454  0.12982  0.14314  0.0000
C7  C  1.0000  0.59709  0.20059  0.14359  0.0000
C8  C  1.0000  0.66583  0.13537  0.14328  0.0000
C9  C  1.0000  0.79845  0.20370  0.14294  0.0000
C10  C  1.0000  0.86648  0.13733  0.14215  0.0000
C11  C  1.0000  0.99528  0.39996  0.14322  0.0000
C12  C  1.0000  0.06180  0.33180  0.14252  0.0000
C13  C  1.0000  0.19399  0.39616  0.14292  0.0000
C14  C  1.0000  0.26291  0.32934  0.14272  0.0000
C15  C  1.0000  0.45587  0.32496  0.14366  0.0000
C16  C  1.0000  0.65754  0.33430  0.14408  0.0000
C17  C  1.0000  0.79277  0.40519  0.14398  0.0000
C18  C  1.0000  0.86151  0.33732  0.14338  0.0000
C19  C  1.0000  0.00002  0.60146  0.14365  0.0000
C20  C  1.0000  0.06499  0.53266  0.14361  0.0000
C21  C  1.0000  0.20005  0.59304  0.14376  0.0000
C22  C  1.0000  0.86470  0.54042  0.14396  0.0000
C23  C  1.0000  0.00634  0.80352  0.14255  0.0000
C24  C  1.0000  0.07157  0.73422  0.14315  0.0000
C25  C  1.0000  0.20550  0.79630  0.14316  0.0000
C26  C  1.0000  0.27388  0.72801  0.14380  0.0000
C27  C  1.0000  0.40965  0.79554  0.14399  0.0000
C28  C  1.0000  0.61093  0.80649  0.14393  0.0000
C29  C  1.0000  0.80802  0.80926  0.14307  0.0000
C30  C  1.0000  0.87487  0.74114  0.14318  0.0000
C31  C  1.0000  0.00389  0.00284  0.14139  0.0000
C32  C  1.0000  0.06985  0.93503  0.14168  0.0000
C33  C  1.0000  0.20142  0.99733  0.14183  0.0000
C34  C  1.0000  0.26876  0.92978  0.14262  0.0000
C35  C  1.0000  0.40123  0.99612  0.14306  0.0000
C36  C  1.0000  0.46972  0.93002  0.14354  0.0000
C37  C  1.0000  0.60255  0.00179  0.14333  0.0000
C38  C  1.0000  0.67268  0.93874  0.14312  0.0000
C39  C  1.0000  0.80427  0.00558  0.14228  0.0000
C40  C  1.0000  0.87235  0.93984  0.14204  0.0000
N1  N  1.0000  0.58322  0.38983  0.14453  0.0000
N2  N  1.0000  0.80893  0.61291  0.14404  0.0000
N3  N  1.0000  0.67898  0.74552  0.14413  0.0000
N4  N  1.0000  0.39348  0.39287  0.14375  0.0000
N5  N  1.0000  0.25791  0.52374  0.14370  0.0000
N6  N  1.0000  0.48342  0.73769  0.14452  0.0000
Cu1  Cu  1.0000  0.43063  0.56238  0.14465  0.0000
Pt1  Pt  1.0000  0.62869  0.56590  0.14483  0.0000
