data_CNCuRe
_audit_creation_method           'pos2cif.pl'
_cell_length_a               12.3170003891
_cell_length_b               12.3170003891315
_cell_length_c               20
_cell_angle_alpha            90
_cell_angle_beta             90
_cell_angle_gamma            120.010002136348
_symmetry_space_group_H-M        'P1'
_symmetry_Int_Tables_number      '1'
_symmetry_cell_setting           'triclinic'
loop_
_symmetry_equiv_pos_as_xyz
x,y,z

loop_
_atom_site_label
_atom_site_type_symbol
_atom_site_occupancy
_atom_site_fract_x
_atom_site_fract_y
_atom_site_fract_z
_atom_site_U_iso_or_equiv
C1  C  1.0000  -0.00010  0.20125  0.14225  0.0000
C2  C  1.0000  0.06757  0.13541  0.14191  0.0000
C3  C  1.0000  0.19974  0.19918  0.14230  0.0000
C4  C  1.0000  0.26365  0.12877  0.14219  0.0000
C5  C  1.0000  0.39469  0.19228  0.14254  0.0000
C6  C  1.0000  0.46464  0.12864  0.14275  0.0000
C7  C  1.0000  0.59772  0.19878  0.14298  0.0000
C8  C  1.0000  0.66671  0.13460  0.14288  0.0000
C9  C  1.0000  0.79937  0.20370  0.14278  0.0000
C10  C  1.0000  0.86777  0.13785  0.14233  0.0000
C11  C  1.0000  0.99628  0.40044  0.14317  0.0000
C12  C  1.0000  0.06323  0.33236  0.14282  0.0000
C13  C  1.0000  0.19542  0.39731  0.14304  0.0000
C14  C  1.0000  0.26585  0.33120  0.14308  0.0000
C15  C  1.0000  0.45662  0.32282  0.14333  0.0000
C16  C  1.0000  0.65887  0.33076  0.14362  0.0000
C17  C  1.0000  0.79374  0.40464  0.14376  0.0000
C18  C  1.0000  0.86255  0.33723  0.14320  0.0000
C19  C  1.0000  -0.00204  0.60106  0.14355  0.0000
C20  C  1.0000  0.06412  0.53279  0.14343  0.0000
C21  C  1.0000  0.19919  0.59374  0.14338  0.0000
C22  C  1.0000  0.86330  0.53961  0.14398  0.0000
C23  C  1.0000  0.00475  0.80307  0.14266  0.0000
C24  C  1.0000  0.07041  0.73401  0.14312  0.0000
C25  C  1.0000  0.20431  0.79601  0.14309  0.0000
C26  C  1.0000  0.27311  0.72821  0.14349  0.0000
C27  C  1.0000  0.40938  0.79687  0.14372  0.0000
C28  C  1.0000  0.61138  0.80844  0.14391  0.0000
C29  C  1.0000  0.80775  0.80985  0.14327  0.0000
C30  C  1.0000  0.87338  0.74131  0.14334  0.0000
C31  C  1.0000  0.00448  0.00352  0.14179  0.0000
C32  C  1.0000  0.06930  0.93486  0.14199  0.0000
C33  C  1.0000  0.20095  0.99701  0.14212  0.0000
C34  C  1.0000  0.26821  0.92955  0.14266  0.0000
C35  C  1.0000  0.40090  0.99591  0.14289  0.0000
C36  C  1.0000  0.46987  0.93054  0.14332  0.0000
C37  C  1.0000  0.60276  0.00167  0.14306  0.0000
C38  C  1.0000  0.67343  0.93958  0.14304  0.0000
C39  C  1.0000  0.80529  0.00656  0.14243  0.0000
C40  C  1.0000  0.87275  0.94043  0.14226  0.0000
N1  N  1.0000  0.58499  0.38612  0.14429  0.0000
N2  N  1.0000  0.80388  0.61184  0.14450  0.0000
N3  N  1.0000  0.67774  0.74492  0.14454  0.0000
N4  N  1.0000  0.39748  0.39412  0.14371  0.0000
N5  N  1.0000  0.25713  0.52445  0.14305  0.0000
N6  N  1.0000  0.48398  0.74089  0.14421  0.0000
Cu1  Cu  1.0000  0.42954  0.56806  0.14333  0.0000
Re1  Re  1.0000  0.62102  0.55890  0.14688  0.0000
