data_CNCuRh
_audit_creation_method           'pos2cif.pl'
_cell_length_a               12.3170003891
_cell_length_b               12.3170003891315
_cell_length_c               20
_cell_angle_alpha            90
_cell_angle_beta             90
_cell_angle_gamma            120.010002136348
_symmetry_space_group_H-M        'P1'
_symmetry_Int_Tables_number      '1'
_symmetry_cell_setting           'triclinic'
loop_
_symmetry_equiv_pos_as_xyz
x,y,z

loop_
_atom_site_label
_atom_site_type_symbol
_atom_site_occupancy
_atom_site_fract_x
_atom_site_fract_y
_atom_site_fract_z
_atom_site_U_iso_or_equiv
C1  C  1.0000  0.99867  0.20071  0.14221  0.0000
C2  C  1.0000  0.06638  0.13452  0.14207  0.0000
C3  C  1.0000  0.19871  0.19831  0.14237  0.0000
C4  C  1.0000  0.26386  0.12906  0.14245  0.0000
C5  C  1.0000  0.39507  0.19370  0.14298  0.0000
C6  C  1.0000  0.46454  0.12961  0.14307  0.0000
C7  C  1.0000  0.59723  0.20036  0.14332  0.0000
C8  C  1.0000  0.66595  0.13536  0.14298  0.0000
C9  C  1.0000  0.79855  0.20386  0.14277  0.0000
C10  C  1.0000  0.86674  0.13768  0.14232  0.0000
C11  C  1.0000  0.99559  0.40044  0.14292  0.0000
C12  C  1.0000  0.06196  0.33199  0.14256  0.0000
C13  C  1.0000  0.19437  0.39710  0.14287  0.0000
C14  C  1.0000  0.26498  0.33014  0.14298  0.0000
C15  C  1.0000  0.45727  0.32549  0.14375  0.0000
C16  C  1.0000  0.65746  0.33370  0.14387  0.0000
C17  C  1.0000  0.79301  0.40521  0.14367  0.0000
C18  C  1.0000  0.86128  0.33762  0.14310  0.0000
C19  C  1.0000  -0.00069  0.60156  0.14329  0.0000
C20  C  1.0000  0.06447  0.53268  0.14317  0.0000
C21  C  1.0000  0.19942  0.59309  0.14331  0.0000
C22  C  1.0000  0.86425  0.54076  0.14366  0.0000
C23  C  1.0000  0.00563  0.80293  0.14276  0.0000
C24  C  1.0000  0.07120  0.73395  0.14302  0.0000
C25  C  1.0000  0.20561  0.79616  0.14305  0.0000
C26  C  1.0000  0.27381  0.72808  0.14344  0.0000
C27  C  1.0000  0.41008  0.79601  0.14370  0.0000
C28  C  1.0000  0.61111  0.80658  0.14375  0.0000
C29  C  1.0000  0.80638  0.80863  0.14321  0.0000
C30  C  1.0000  0.87380  0.73983  0.14325  0.0000
C31  C  1.0000  0.00381  0.00279  0.14211  0.0000
C32  C  1.0000  0.06959  0.93481  0.14231  0.0000
C33  C  1.0000  0.20126  0.99709  0.14238  0.0000
C34  C  1.0000  0.26865  0.92958  0.14277  0.0000
C35  C  1.0000  0.40122  0.99606  0.14298  0.0000
C36  C  1.0000  0.46977  0.93028  0.14326  0.0000
C37  C  1.0000  0.60270  0.00190  0.14302  0.0000
C38  C  1.0000  0.67290  0.93903  0.14294  0.0000
C39  C  1.0000  0.80427  0.00584  0.14242  0.0000
C40  C  1.0000  0.87168  0.93926  0.14242  0.0000
N1  N  1.0000  0.58465  0.39033  0.14450  0.0000
N2  N  1.0000  0.80665  0.61225  0.14389  0.0000
N3  N  1.0000  0.67771  0.74380  0.14408  0.0000
N4  N  1.0000  0.39485  0.39362  0.14383  0.0000
N5  N  1.0000  0.25683  0.52356  0.14329  0.0000
N6  N  1.0000  0.48357  0.73869  0.14427  0.0000
Cu1  Cu  1.0000  0.43161  0.56377  0.14452  0.0000
Rh1  Rh  1.0000  0.62863  0.56334  0.14506  0.0000
