data_CNCuRu
_audit_creation_method           'pos2cif.pl'
_cell_length_a               12.3170003891
_cell_length_b               12.3170003891315
_cell_length_c               20
_cell_angle_alpha            90
_cell_angle_beta             90
_cell_angle_gamma            120.010002136348
_symmetry_space_group_H-M        'P1'
_symmetry_Int_Tables_number      '1'
_symmetry_cell_setting           'triclinic'
loop_
_symmetry_equiv_pos_as_xyz
x,y,z

loop_
_atom_site_label
_atom_site_type_symbol
_atom_site_occupancy
_atom_site_fract_x
_atom_site_fract_y
_atom_site_fract_z
_atom_site_U_iso_or_equiv
C1  C  1.0000  0.99909  0.20090  0.14173  0.0000
C2  C  1.0000  0.06674  0.13475  0.14132  0.0000
C3  C  1.0000  0.19901  0.19852  0.14168  0.0000
C4  C  1.0000  0.26372  0.12887  0.14189  0.0000
C5  C  1.0000  0.39481  0.19307  0.14276  0.0000
C6  C  1.0000  0.46454  0.12927  0.14308  0.0000
C7  C  1.0000  0.59734  0.19975  0.14356  0.0000
C8  C  1.0000  0.66620  0.13518  0.14322  0.0000
C9  C  1.0000  0.79887  0.20388  0.14289  0.0000
C10  C  1.0000  0.86713  0.13780  0.14210  0.0000
C11  C  1.0000  0.99596  0.40048  0.14316  0.0000
C12  C  1.0000  0.06246  0.33213  0.14239  0.0000
C13  C  1.0000  0.19480  0.39721  0.14273  0.0000
C14  C  1.0000  0.26546  0.33047  0.14252  0.0000
C15  C  1.0000  0.45702  0.32440  0.14366  0.0000
C16  C  1.0000  0.65797  0.33260  0.14408  0.0000
C17  C  1.0000  0.79333  0.40498  0.14395  0.0000
C18  C  1.0000  0.86182  0.33753  0.14333  0.0000
C19  C  1.0000  -0.00087  0.60146  0.14377  0.0000
C20  C  1.0000  0.06456  0.53275  0.14363  0.0000
C21  C  1.0000  0.19946  0.59332  0.14374  0.0000
C22  C  1.0000  0.86427  0.54046  0.14407  0.0000
C23  C  1.0000  0.00525  0.80292  0.14264  0.0000
C24  C  1.0000  0.07097  0.73394  0.14321  0.0000
C25  C  1.0000  0.20522  0.79613  0.14318  0.0000
C26  C  1.0000  0.27360  0.72821  0.14383  0.0000
C27  C  1.0000  0.40984  0.79654  0.14413  0.0000
C28  C  1.0000  0.61097  0.80752  0.14401  0.0000
C29  C  1.0000  0.80641  0.80891  0.14294  0.0000
C30  C  1.0000  0.87353  0.74013  0.14322  0.0000
C31  C  1.0000  0.00388  0.00296  0.14136  0.0000
C32  C  1.0000  0.06939  0.93477  0.14172  0.0000
C33  C  1.0000  0.20101  0.99697  0.14186  0.0000
C34  C  1.0000  0.26845  0.92954  0.14263  0.0000
C35  C  1.0000  0.40105  0.99606  0.14301  0.0000
C36  C  1.0000  0.46980  0.93059  0.14353  0.0000
C37  C  1.0000  0.60271  0.00198  0.14326  0.0000
C38  C  1.0000  0.67305  0.93945  0.14300  0.0000
C39  C  1.0000  0.80454  0.00614  0.14214  0.0000
C40  C  1.0000  0.87187  0.93957  0.14186  0.0000
N1  N  1.0000  0.58472  0.38872  0.14444  0.0000
N2  N  1.0000  0.80600  0.61199  0.14403  0.0000
N3  N  1.0000  0.67733  0.74424  0.14421  0.0000
N4  N  1.0000  0.39582  0.39372  0.14365  0.0000
N5  N  1.0000  0.25701  0.52383  0.14361  0.0000
N6  N  1.0000  0.48361  0.73984  0.14495  0.0000
Cu1  Cu  1.0000  0.43091  0.56500  0.14585  0.0000
Ru1  Ru  1.0000  0.62635  0.56172  0.14441  0.0000
