data_CNCuSc
_audit_creation_method           'pos2cif.pl'
_cell_length_a               12.3170003891
_cell_length_b               12.3170003891315
_cell_length_c               20
_cell_angle_alpha            90
_cell_angle_beta             90
_cell_angle_gamma            120.010002136348
_symmetry_space_group_H-M        'P1'
_symmetry_Int_Tables_number      '1'
_symmetry_cell_setting           'triclinic'
loop_
_symmetry_equiv_pos_as_xyz
x,y,z

loop_
_atom_site_label
_atom_site_type_symbol
_atom_site_occupancy
_atom_site_fract_x
_atom_site_fract_y
_atom_site_fract_z
_atom_site_U_iso_or_equiv
C1  C  1.0000  -0.00044  0.20011  0.14264  0.0000
C2  C  1.0000  0.06688  0.13415  0.14272  0.0000
C3  C  1.0000  0.19954  0.19941  0.14272  0.0000
C4  C  1.0000  0.26454  0.13015  0.14172  0.0000
C5  C  1.0000  0.39647  0.19623  0.14086  0.0000
C6  C  1.0000  0.46516  0.13109  0.14028  0.0000
C7  C  1.0000  0.59835  0.20092  0.14025  0.0000
C8  C  1.0000  0.66672  0.13527  0.14051  0.0000
C9  C  1.0000  0.79923  0.20269  0.14150  0.0000
C10  C  1.0000  0.86717  0.13607  0.14206  0.0000
C11  C  1.0000  0.99655  0.39953  0.14218  0.0000
C12  C  1.0000  0.06337  0.33152  0.14238  0.0000
C13  C  1.0000  0.19558  0.39696  0.14192  0.0000
C14  C  1.0000  0.26534  0.33126  0.14293  0.0000
C15  C  1.0000  0.46054  0.32868  0.14135  0.0000
C16  C  1.0000  0.65985  0.33359  0.14186  0.0000
C17  C  1.0000  0.79494  0.40416  0.14343  0.0000
C18  C  1.0000  0.86316  0.33608  0.14230  0.0000
C19  C  1.0000  -0.00073  0.60062  0.14326  0.0000
C20  C  1.0000  0.06496  0.53226  0.14193  0.0000
C21  C  1.0000  0.19971  0.59358  0.14077  0.0000
C22  C  1.0000  0.86503  0.53850  0.14536  0.0000
C23  C  1.0000  0.00342  0.80186  0.14397  0.0000
C24  C  1.0000  0.07028  0.73395  0.14319  0.0000
C25  C  1.0000  0.20391  0.79667  0.14166  0.0000
C26  C  1.0000  0.27257  0.72846  0.14082  0.0000
C27  C  1.0000  0.40840  0.79736  0.14084  0.0000
C28  C  1.0000  0.60944  0.80759  0.14271  0.0000
C29  C  1.0000  0.80437  0.80529  0.14487  0.0000
C30  C  1.0000  0.87057  0.73718  0.14610  0.0000
C31  C  1.0000  0.00290  0.00166  0.14286  0.0000
C32  C  1.0000  0.06842  0.93379  0.14275  0.0000
C33  C  1.0000  0.20105  0.99801  0.14180  0.0000
C34  C  1.0000  0.26824  0.93060  0.14127  0.0000
C35  C  1.0000  0.40086  0.99757  0.14051  0.0000
C36  C  1.0000  0.46940  0.93130  0.14056  0.0000
C37  C  1.0000  0.60228  0.00211  0.14054  0.0000
C38  C  1.0000  0.67205  0.93871  0.14154  0.0000
C39  C  1.0000  0.80429  0.00462  0.14230  0.0000
C40  C  1.0000  0.87084  0.93731  0.14329  0.0000
N1  N  1.0000  0.58856  0.39283  0.14325  0.0000
N2  N  1.0000  0.80322  0.60690  0.14995  0.0000
N3  N  1.0000  0.67323  0.74176  0.14655  0.0000
N4  N  1.0000  0.39851  0.39792  0.14203  0.0000
N5  N  1.0000  0.25816  0.52463  0.13997  0.0000
N6  N  1.0000  0.48232  0.73998  0.14125  0.0000
Cu1  Cu  1.0000  0.43256  0.56708  0.13916  0.0000
Sc1  Sc  1.0000  0.62529  0.56318  0.18328  0.0000
