data_CNCuTa
_audit_creation_method           'pos2cif.pl'
_cell_length_a               12.3170003891
_cell_length_b               12.3170003891315
_cell_length_c               20
_cell_angle_alpha            90
_cell_angle_beta             90
_cell_angle_gamma            120.010002136348
_symmetry_space_group_H-M        'P1'
_symmetry_Int_Tables_number      '1'
_symmetry_cell_setting           'triclinic'
loop_
_symmetry_equiv_pos_as_xyz
x,y,z

loop_
_atom_site_label
_atom_site_type_symbol
_atom_site_occupancy
_atom_site_fract_x
_atom_site_fract_y
_atom_site_fract_z
_atom_site_U_iso_or_equiv
C1  C  1.0000  0.00024  0.20096  0.14304  0.0000
C2  C  1.0000  0.06796  0.13525  0.14303  0.0000
C3  C  1.0000  0.20044  0.20022  0.14080  0.0000
C4  C  1.0000  0.26493  0.13018  0.14096  0.0000
C5  C  1.0000  0.39666  0.19519  0.13889  0.0000
C6  C  1.0000  0.46557  0.13030  0.13852  0.0000
C7  C  1.0000  0.59895  0.19997  0.13724  0.0000
C8  C  1.0000  0.66726  0.13456  0.14068  0.0000
C9  C  1.0000  0.79974  0.20313  0.14175  0.0000
C10  C  1.0000  0.86783  0.13678  0.14396  0.0000
C11  C  1.0000  0.99674  0.40021  0.14148  0.0000
C12  C  1.0000  0.06364  0.33219  0.14125  0.0000
C13  C  1.0000  0.19577  0.39750  0.13789  0.0000
C14  C  1.0000  0.26584  0.33210  0.13835  0.0000
C15  C  1.0000  0.46013  0.32674  0.13482  0.0000
C16  C  1.0000  0.66121  0.33214  0.13590  0.0000
C17  C  1.0000  0.79510  0.40474  0.14127  0.0000
C18  C  1.0000  0.86346  0.33666  0.14138  0.0000
C19  C  1.0000  -0.00242  0.60093  0.14504  0.0000
C20  C  1.0000  0.06409  0.53281  0.14154  0.0000
C21  C  1.0000  0.19903  0.59418  0.13857  0.0000
C22  C  1.0000  0.86280  0.53886  0.14711  0.0000
C23  C  1.0000  0.00379  0.80233  0.14739  0.0000
C24  C  1.0000  0.07022  0.73409  0.14552  0.0000
C25  C  1.0000  0.20394  0.79658  0.14288  0.0000
C26  C  1.0000  0.27279  0.72859  0.14064  0.0000
C27  C  1.0000  0.40911  0.79743  0.14202  0.0000
C28  C  1.0000  0.61053  0.80696  0.14903  0.0000
C29  C  1.0000  0.80711  0.80771  0.15228  0.0000
C30  C  1.0000  0.87173  0.73920  0.15179  0.0000
C31  C  1.0000  0.00419  0.00284  0.14551  0.0000
C32  C  1.0000  0.06906  0.93442  0.14512  0.0000
C33  C  1.0000  0.20151  -0.00186  0.14269  0.0000
C34  C  1.0000  0.26858  0.93049  0.14226  0.0000
C35  C  1.0000  0.40131  0.99717  0.14078  0.0000
C36  C  1.0000  0.47004  0.93106  0.14210  0.0000
C37  C  1.0000  0.60292  0.00142  0.14302  0.0000
C38  C  1.0000  0.67302  0.93830  0.14680  0.0000
C39  C  1.0000  0.80523  0.00553  0.14690  0.0000
C40  C  1.0000  0.87227  0.93888  0.14839  0.0000
N1  N  1.0000  0.58930  0.39099  0.13293  0.0000
N2  N  1.0000  0.80025  0.60854  0.15559  0.0000
N3  N  1.0000  0.67628  0.74178  0.15624  0.0000
N4  N  1.0000  0.39952  0.39841  0.13511  0.0000
N5  N  1.0000  0.25717  0.52498  0.13378  0.0000
N6  N  1.0000  0.48364  0.74076  0.14377  0.0000
Cu1  Cu  1.0000  0.42948  0.56949  0.13322  0.0000
Ta1  Ta  1.0000  0.60904  0.54946  0.17272  0.0000
