data_CNCuTc
_audit_creation_method           'pos2cif.pl'
_cell_length_a               12.3170003891
_cell_length_b               12.3170003891315
_cell_length_c               20
_cell_angle_alpha            90
_cell_angle_beta             90
_cell_angle_gamma            120.010002136348
_symmetry_space_group_H-M        'P1'
_symmetry_Int_Tables_number      '1'
_symmetry_cell_setting           'triclinic'
loop_
_symmetry_equiv_pos_as_xyz
x,y,z

loop_
_atom_site_label
_atom_site_type_symbol
_atom_site_occupancy
_atom_site_fract_x
_atom_site_fract_y
_atom_site_fract_z
_atom_site_U_iso_or_equiv
C1  C  1.0000  0.99973  0.20097  0.14199  0.0000
C2  C  1.0000  0.06738  0.13512  0.14162  0.0000
C3  C  1.0000  0.19964  0.19910  0.14201  0.0000
C4  C  1.0000  0.26370  0.12898  0.14205  0.0000
C5  C  1.0000  0.39509  0.19322  0.14272  0.0000
C6  C  1.0000  0.46484  0.12913  0.14299  0.0000
C7  C  1.0000  0.59760  0.19878  0.14333  0.0000
C8  C  1.0000  0.66661  0.13470  0.14306  0.0000
C9  C  1.0000  0.79934  0.20353  0.14284  0.0000
C10  C  1.0000  0.86763  0.13762  0.14221  0.0000
C11  C  1.0000  0.99640  0.40019  0.14318  0.0000
C12  C  1.0000  0.06322  0.33221  0.14263  0.0000
C13  C  1.0000  0.19550  0.39709  0.14297  0.0000
C14  C  1.0000  0.26583  0.33126  0.14285  0.0000
C15  C  1.0000  0.45734  0.32382  0.14356  0.0000
C16  C  1.0000  0.65914  0.33124  0.14392  0.0000
C17  C  1.0000  0.79393  0.40437  0.14389  0.0000
C18  C  1.0000  0.86273  0.33703  0.14328  0.0000
C19  C  1.0000  -0.00124  0.60114  0.14362  0.0000
C20  C  1.0000  0.06454  0.53281  0.14354  0.0000
C21  C  1.0000  0.19936  0.59366  0.14365  0.0000
C22  C  1.0000  0.86381  0.53957  0.14397  0.0000
C23  C  1.0000  0.00444  0.80275  0.14259  0.0000
C24  C  1.0000  0.07040  0.73392  0.14314  0.0000
C25  C  1.0000  0.20444  0.79629  0.14314  0.0000
C26  C  1.0000  0.27307  0.72836  0.14371  0.0000
C27  C  1.0000  0.40913  0.79687  0.14390  0.0000
C28  C  1.0000  0.61129  0.80863  0.14385  0.0000
C29  C  1.0000  0.80667  0.80890  0.14306  0.0000
C30  C  1.0000  0.87267  0.74015  0.14318  0.0000
C31  C  1.0000  0.00409  0.00309  0.14158  0.0000
C32  C  1.0000  0.06906  0.93462  0.14185  0.0000
C33  C  1.0000  0.20092  0.99722  0.14200  0.0000
C34  C  1.0000  0.26817  0.92971  0.14266  0.0000
C35  C  1.0000  0.40086  0.99615  0.14298  0.0000
C36  C  1.0000  0.46965  0.93072  0.14342  0.0000
C37  C  1.0000  0.60264  0.00186  0.14316  0.0000
C38  C  1.0000  0.67319  0.93979  0.14301  0.0000
C39  C  1.0000  0.80496  0.00618  0.14229  0.0000
C40  C  1.0000  0.87231  0.93987  0.14209  0.0000
N1  N  1.0000  0.58573  0.38676  0.14454  0.0000
N2  N  1.0000  0.80468  0.61077  0.14414  0.0000
N3  N  1.0000  0.67702  0.74564  0.14412  0.0000
N4  N  1.0000  0.39765  0.39510  0.14373  0.0000
N5  N  1.0000  0.25731  0.52443  0.14355  0.0000
N6  N  1.0000  0.48347  0.74065  0.14444  0.0000
Cu1  Cu  1.0000  0.42987  0.56831  0.14457  0.0000
Tc1  Tc  1.0000  0.62126  0.55889  0.14539  0.0000
