data_CNCuTi
_audit_creation_method           'pos2cif.pl'
_cell_length_a               12.3170003891
_cell_length_b               12.3170003891315
_cell_length_c               20
_cell_angle_alpha            90
_cell_angle_beta             90
_cell_angle_gamma            120.010002136348
_symmetry_space_group_H-M        'P1'
_symmetry_Int_Tables_number      '1'
_symmetry_cell_setting           'triclinic'
loop_
_symmetry_equiv_pos_as_xyz
x,y,z

loop_
_atom_site_label
_atom_site_type_symbol
_atom_site_occupancy
_atom_site_fract_x
_atom_site_fract_y
_atom_site_fract_z
_atom_site_U_iso_or_equiv
C1  C  1.0000  -0.00008  0.20054  0.14238  0.0000
C2  C  1.0000  0.06743  0.13471  0.14202  0.0000
C3  C  1.0000  0.20007  0.19985  0.14114  0.0000
C4  C  1.0000  0.26488  0.13033  0.14039  0.0000
C5  C  1.0000  0.39668  0.19583  0.13922  0.0000
C6  C  1.0000  0.46537  0.13078  0.13930  0.0000
C7  C  1.0000  0.59870  0.20048  0.13951  0.0000
C8  C  1.0000  0.66697  0.13493  0.14127  0.0000
C9  C  1.0000  0.79949  0.20291  0.14197  0.0000
C10  C  1.0000  0.86753  0.13650  0.14276  0.0000
C11  C  1.0000  0.99669  0.39994  0.14200  0.0000
C12  C  1.0000  0.06354  0.33191  0.14167  0.0000
C13  C  1.0000  0.19585  0.39744  0.13983  0.0000
C14  C  1.0000  0.26595  0.33184  0.14057  0.0000
C15  C  1.0000  0.46076  0.32843  0.13845  0.0000
C16  C  1.0000  0.66036  0.33286  0.14017  0.0000
C17  C  1.0000  0.79498  0.40441  0.14343  0.0000
C18  C  1.0000  0.86323  0.33649  0.14232  0.0000
C19  C  1.0000  -0.00173  0.60073  0.14455  0.0000
C20  C  1.0000  0.06444  0.53255  0.14204  0.0000
C21  C  1.0000  0.19933  0.59384  0.13996  0.0000
C22  C  1.0000  0.86372  0.53887  0.14729  0.0000
C23  C  1.0000  0.00323  0.80184  0.14475  0.0000
C24  C  1.0000  0.07011  0.73396  0.14410  0.0000
C25  C  1.0000  0.20387  0.79655  0.14215  0.0000
C26  C  1.0000  0.27268  0.72853  0.14126  0.0000
C27  C  1.0000  0.40873  0.79721  0.14246  0.0000
C28  C  1.0000  0.61035  0.80721  0.14724  0.0000
C29  C  1.0000  0.80535  0.80635  0.14841  0.0000
C30  C  1.0000  0.87075  0.73780  0.14872  0.0000
C31  C  1.0000  0.00351  0.00220  0.14291  0.0000
C32  C  1.0000  0.06861  0.93405  0.14262  0.0000
C33  C  1.0000  0.20118  0.99797  0.14119  0.0000
C34  C  1.0000  0.26835  0.93055  0.14126  0.0000
C35  C  1.0000  0.40108  0.99730  0.14060  0.0000
C36  C  1.0000  0.46964  0.93106  0.14198  0.0000
C37  C  1.0000  0.60261  0.00172  0.14250  0.0000
C38  C  1.0000  0.67262  0.93869  0.14480  0.0000
C39  C  1.0000  0.80471  0.00505  0.14431  0.0000
C40  C  1.0000  0.87141  0.93790  0.14493  0.0000
N1  N  1.0000  0.58923  0.39202  0.13913  0.0000
N2  N  1.0000  0.80174  0.60766  0.15383  0.0000
N3  N  1.0000  0.67480  0.74217  0.15224  0.0000
N4  N  1.0000  0.39910  0.39807  0.13881  0.0000
N5  N  1.0000  0.25764  0.52488  0.13692  0.0000
N6  N  1.0000  0.48298  0.74008  0.14429  0.0000
Cu1  Cu  1.0000  0.43167  0.56855  0.13683  0.0000
Ti1  Ti  1.0000  0.61695  0.55559  0.17145  0.0000
