data_CNCuV
_audit_creation_method           'pos2cif.pl'
_cell_length_a               12.3170003891
_cell_length_b               12.3170003891315
_cell_length_c               20
_cell_angle_alpha            90
_cell_angle_beta             90
_cell_angle_gamma            120.010002136348
_symmetry_space_group_H-M        'P1'
_symmetry_Int_Tables_number      '1'
_symmetry_cell_setting           'triclinic'
loop_
_symmetry_equiv_pos_as_xyz
x,y,z

loop_
_atom_site_label
_atom_site_type_symbol
_atom_site_occupancy
_atom_site_fract_x
_atom_site_fract_y
_atom_site_fract_z
_atom_site_U_iso_or_equiv
C1  C  1.0000  0.99935  0.20042  0.14269  0.0000
C2  C  1.0000  0.06675  0.13439  0.14188  0.0000
C3  C  1.0000  0.19926  0.19905  0.14127  0.0000
C4  C  1.0000  0.26429  0.12980  0.14008  0.0000
C5  C  1.0000  0.39589  0.19510  0.13964  0.0000
C6  C  1.0000  0.46499  0.13051  0.14001  0.0000
C7  C  1.0000  0.59813  0.20065  0.14093  0.0000
C8  C  1.0000  0.66655  0.13531  0.14156  0.0000
C9  C  1.0000  0.79910  0.20319  0.14271  0.0000
C10  C  1.0000  0.86711  0.13669  0.14284  0.0000
C11  C  1.0000  0.99629  0.39995  0.14322  0.0000
C12  C  1.0000  0.06300  0.33185  0.14266  0.0000
C13  C  1.0000  0.19532  0.39727  0.14144  0.0000
C14  C  1.0000  0.26533  0.33099  0.14156  0.0000
C15  C  1.0000  0.45898  0.32737  0.14107  0.0000
C16  C  1.0000  0.65922  0.33339  0.14320  0.0000
C17  C  1.0000  0.79411  0.40446  0.14513  0.0000
C18  C  1.0000  0.86253  0.33671  0.14370  0.0000
C19  C  1.0000  -0.00106  0.60097  0.14410  0.0000
C20  C  1.0000  0.06465  0.53252  0.14278  0.0000
C21  C  1.0000  0.19947  0.59343  0.14105  0.0000
C22  C  1.0000  0.86442  0.53954  0.14700  0.0000
C23  C  1.0000  0.00397  0.80226  0.14348  0.0000
C24  C  1.0000  0.07040  0.73397  0.14300  0.0000
C25  C  1.0000  0.20441  0.79647  0.14122  0.0000
C26  C  1.0000  0.27299  0.72845  0.14087  0.0000
C27  C  1.0000  0.40907  0.79698  0.14112  0.0000
C28  C  1.0000  0.61005  0.80716  0.14502  0.0000
C29  C  1.0000  0.80525  0.80668  0.14668  0.0000
C30  C  1.0000  0.87184  0.73850  0.14708  0.0000
C31  C  1.0000  0.00331  0.00215  0.14218  0.0000
C32  C  1.0000  0.06885  0.93430  0.14170  0.0000
C33  C  1.0000  0.20104  0.99759  0.14045  0.0000
C34  C  1.0000  0.26834  0.93028  0.14042  0.0000
C35  C  1.0000  0.40106  0.99709  0.14022  0.0000
C36  C  1.0000  0.46954  0.93099  0.14096  0.0000
C37  C  1.0000  0.60246  0.00196  0.14162  0.0000
C38  C  1.0000  0.67237  0.93889  0.14336  0.0000
C39  C  1.0000  0.80432  0.00512  0.14345  0.0000
C40  C  1.0000  0.87122  0.93805  0.14379  0.0000
N1  N  1.0000  0.58709  0.39170  0.14514  0.0000
N2  N  1.0000  0.80421  0.60913  0.15185  0.0000
N3  N  1.0000  0.67509  0.74278  0.14995  0.0000
N4  N  1.0000  0.39728  0.39585  0.14106  0.0000
N5  N  1.0000  0.25758  0.52443  0.13968  0.0000
N6  N  1.0000  0.48294  0.73970  0.14204  0.0000
Cu1  Cu  1.0000  0.43279  0.56591  0.13788  0.0000
V1  V  1.0000  0.62586  0.56123  0.16718  0.0000
