data_CNCuW
_audit_creation_method           'pos2cif.pl'
_cell_length_a               12.3170003891
_cell_length_b               12.3170003891315
_cell_length_c               20
_cell_angle_alpha            90
_cell_angle_beta             90
_cell_angle_gamma            120.010002136348
_symmetry_space_group_H-M        'P1'
_symmetry_Int_Tables_number      '1'
_symmetry_cell_setting           'triclinic'
loop_
_symmetry_equiv_pos_as_xyz
x,y,z

loop_
_atom_site_label
_atom_site_type_symbol
_atom_site_occupancy
_atom_site_fract_x
_atom_site_fract_y
_atom_site_fract_z
_atom_site_U_iso_or_equiv
C1  C  1.0000  -0.00043  0.20075  0.13973  0.0000
C2  C  1.0000  0.06690  0.13462  0.13754  0.0000
C3  C  1.0000  0.19910  0.19866  0.13689  0.0000
C4  C  1.0000  0.26377  0.12915  0.13546  0.0000
C5  C  1.0000  0.39538  0.19403  0.13616  0.0000
C6  C  1.0000  0.46496  0.12982  0.13782  0.0000
C7  C  1.0000  0.59804  0.20005  0.14017  0.0000
C8  C  1.0000  0.66670  0.13505  0.14097  0.0000
C9  C  1.0000  0.79924  0.20346  0.14199  0.0000
C10  C  1.0000  0.86737  0.13707  0.14114  0.0000
C11  C  1.0000  0.99633  0.40015  0.14264  0.0000
C12  C  1.0000  0.06306  0.33198  0.14050  0.0000
C13  C  1.0000  0.19527  0.39710  0.13931  0.0000
C14  C  1.0000  0.26489  0.33062  0.13942  0.0000
C15  C  1.0000  0.45718  0.32487  0.14072  0.0000
C16  C  1.0000  0.65936  0.33214  0.14458  0.0000
C17  C  1.0000  0.79406  0.40454  0.14694  0.0000
C18  C  1.0000  0.86275  0.33695  0.14374  0.0000
C19  C  1.0000  -0.00130  0.60100  0.14549  0.0000
C20  C  1.0000  0.06466  0.53261  0.14314  0.0000
C21  C  1.0000  0.19956  0.59363  0.14106  0.0000
C22  C  1.0000  0.86432  0.53947  0.14978  0.0000
C23  C  1.0000  0.00442  0.80262  0.14264  0.0000
C24  C  1.0000  0.07059  0.73400  0.14300  0.0000
C25  C  1.0000  0.20443  0.79634  0.14064  0.0000
C26  C  1.0000  0.27313  0.72830  0.14162  0.0000
C27  C  1.0000  0.40914  0.79701  0.14332  0.0000
C28  C  1.0000  0.61043  0.80811  0.14898  0.0000
C29  C  1.0000  0.80735  0.80882  0.14864  0.0000
C30  C  1.0000  0.87311  0.74046  0.14861  0.0000
C31  C  1.0000  0.00371  0.00254  0.13853  0.0000
C32  C  1.0000  0.06896  0.93441  0.13841  0.0000
C33  C  1.0000  0.20096  0.99726  0.13647  0.0000
C34  C  1.0000  0.26835  0.92993  0.13816  0.0000
C35  C  1.0000  0.40109  0.99672  0.13854  0.0000
C36  C  1.0000  0.46977  0.93086  0.14138  0.0000
C37  C  1.0000  0.60264  0.00185  0.14180  0.0000
C38  C  1.0000  0.67287  0.93909  0.14418  0.0000
C39  C  1.0000  0.80482  0.00578  0.14261  0.0000
C40  C  1.0000  0.87200  0.93911  0.14254  0.0000
N1  N  1.0000  0.58524  0.38836  0.14934  0.0000
N2  N  1.0000  0.80489  0.61087  0.15582  0.0000
N3  N  1.0000  0.67713  0.74477  0.15650  0.0000
N4  N  1.0000  0.39656  0.39463  0.14225  0.0000
N5  N  1.0000  0.25779  0.52448  0.13825  0.0000
N6  N  1.0000  0.48349  0.74042  0.14719  0.0000
Cu1  Cu  1.0000  0.43096  0.56674  0.14301  0.0000
W1  W  1.0000  0.62203  0.55995  0.17431  0.0000
