data_CNCuY
_audit_creation_method           'pos2cif.pl'
_cell_length_a               12.3170003891
_cell_length_b               12.3170003891315
_cell_length_c               20
_cell_angle_alpha            90
_cell_angle_beta             90
_cell_angle_gamma            120.010002136348
_symmetry_space_group_H-M        'P1'
_symmetry_Int_Tables_number      '1'
_symmetry_cell_setting           'triclinic'
loop_
_symmetry_equiv_pos_as_xyz
x,y,z

loop_
_atom_site_label
_atom_site_type_symbol
_atom_site_occupancy
_atom_site_fract_x
_atom_site_fract_y
_atom_site_fract_z
_atom_site_U_iso_or_equiv
C1  C  1.0000  -0.00044  0.20004  0.14219  0.0000
C2  C  1.0000  0.06689  0.13412  0.14182  0.0000
C3  C  1.0000  0.19954  0.19941  0.14180  0.0000
C4  C  1.0000  0.26453  0.13005  0.14043  0.0000
C5  C  1.0000  0.39649  0.19615  0.13944  0.0000
C6  C  1.0000  0.46534  0.13118  0.13893  0.0000
C7  C  1.0000  0.59850  0.20090  0.13938  0.0000
C8  C  1.0000  0.66683  0.13531  0.13959  0.0000
C9  C  1.0000  0.79939  0.20268  0.14105  0.0000
C10  C  1.0000  0.86725  0.13606  0.14154  0.0000
C11  C  1.0000  0.99664  0.39944  0.14227  0.0000
C12  C  1.0000  0.06333  0.33139  0.14222  0.0000
C13  C  1.0000  0.19551  0.39687  0.14163  0.0000
C14  C  1.0000  0.26523  0.33122  0.14272  0.0000
C15  C  1.0000  0.46071  0.32847  0.14058  0.0000
C16  C  1.0000  0.66003  0.33350  0.14177  0.0000
C17  C  1.0000  0.79524  0.40413  0.14388  0.0000
C18  C  1.0000  0.86337  0.33597  0.14237  0.0000
C19  C  1.0000  -0.00035  0.60059  0.14361  0.0000
C20  C  1.0000  0.06512  0.53225  0.14197  0.0000
C21  C  1.0000  0.19970  0.59357  0.14043  0.0000
C22  C  1.0000  0.86559  0.53836  0.14646  0.0000
C23  C  1.0000  0.00343  0.80184  0.14416  0.0000
C24  C  1.0000  0.07033  0.73392  0.14325  0.0000
C25  C  1.0000  0.20393  0.79673  0.14104  0.0000
C26  C  1.0000  0.27256  0.72855  0.14016  0.0000
C27  C  1.0000  0.40837  0.79760  0.13995  0.0000
C28  C  1.0000  0.60940  0.80817  0.14273  0.0000
C29  C  1.0000  0.80427  0.80515  0.14587  0.0000
C30  C  1.0000  0.87055  0.73687  0.14760  0.0000
C31  C  1.0000  0.00289  0.00163  0.14208  0.0000
C32  C  1.0000  0.06840  0.93367  0.14202  0.0000
C33  C  1.0000  0.20106  0.99798  0.14064  0.0000
C34  C  1.0000  0.26834  0.93064  0.14019  0.0000
C35  C  1.0000  0.40092  0.99765  0.13921  0.0000
C36  C  1.0000  0.46941  0.93145  0.13939  0.0000
C37  C  1.0000  0.60235  0.00232  0.13943  0.0000
C38  C  1.0000  0.67214  0.93910  0.14091  0.0000
C39  C  1.0000  0.80439  0.00466  0.14183  0.0000
C40  C  1.0000  0.87089  0.93730  0.14313  0.0000
N1  N  1.0000  0.58849  0.39240  0.14326  0.0000
N2  N  1.0000  0.80438  0.60676  0.15291  0.0000
N3  N  1.0000  0.67310  0.74268  0.14820  0.0000
N4  N  1.0000  0.39872  0.39816  0.14263  0.0000
N5  N  1.0000  0.25798  0.52459  0.13940  0.0000
N6  N  1.0000  0.48235  0.74034  0.14060  0.0000
Cu1  Cu  1.0000  0.43194  0.56734  0.13800  0.0000
Y1  Y  1.0000  0.62198  0.56198  0.19726  0.0000
