data_CNCuZn
_audit_creation_method           'pos2cif.pl'
_cell_length_a               12.3170003891
_cell_length_b               12.3170003891315
_cell_length_c               20
_cell_angle_alpha            90
_cell_angle_beta             90
_cell_angle_gamma            120.010002136348
_symmetry_space_group_H-M        'P1'
_symmetry_Int_Tables_number      '1'
_symmetry_cell_setting           'triclinic'
loop_
_symmetry_equiv_pos_as_xyz
x,y,z

loop_
_atom_site_label
_atom_site_type_symbol
_atom_site_occupancy
_atom_site_fract_x
_atom_site_fract_y
_atom_site_fract_z
_atom_site_U_iso_or_equiv
C1  C  1.0000  0.99843  0.19997  0.14224  0.0000
C2  C  1.0000  0.06583  0.13373  0.14204  0.0000
C3  C  1.0000  0.19798  0.19780  0.14231  0.0000
C4  C  1.0000  0.26380  0.12929  0.14246  0.0000
C5  C  1.0000  0.39514  0.19459  0.14297  0.0000
C6  C  1.0000  0.46482  0.13070  0.14312  0.0000
C7  C  1.0000  0.59767  0.20128  0.14333  0.0000
C8  C  1.0000  0.66607  0.13576  0.14310  0.0000
C9  C  1.0000  0.79864  0.20348  0.14286  0.0000
C10  C  1.0000  0.86642  0.13668  0.14246  0.0000
C11  C  1.0000  0.99565  0.39975  0.14288  0.0000
C12  C  1.0000  0.06202  0.33142  0.14252  0.0000
C13  C  1.0000  0.19428  0.39650  0.14274  0.0000
C14  C  1.0000  0.26356  0.32934  0.14286  0.0000
C15  C  1.0000  0.45730  0.32665  0.14362  0.0000
C16  C  1.0000  0.65811  0.33497  0.14374  0.0000
C17  C  1.0000  0.79345  0.40518  0.14360  0.0000
C18  C  1.0000  0.86180  0.33701  0.14308  0.0000
C19  C  1.0000  0.00046  0.60124  0.14327  0.0000
C20  C  1.0000  0.06525  0.53240  0.14311  0.0000
C21  C  1.0000  0.19994  0.59284  0.14322  0.0000
C22  C  1.0000  0.86577  0.54059  0.14365  0.0000
C23  C  1.0000  0.00557  0.80295  0.14273  0.0000
C24  C  1.0000  0.07136  0.73413  0.14304  0.0000
C25  C  1.0000  0.20541  0.79653  0.14308  0.0000
C26  C  1.0000  0.27363  0.72827  0.14344  0.0000
C27  C  1.0000  0.40942  0.79663  0.14375  0.0000
C28  C  1.0000  0.60988  0.80669  0.14373  0.0000
C29  C  1.0000  0.80594  0.80709  0.14309  0.0000
C30  C  1.0000  0.87348  0.73867  0.14321  0.0000
C31  C  1.0000  0.00323  0.00194  0.14210  0.0000
C32  C  1.0000  0.06947  0.93452  0.14225  0.0000
C33  C  1.0000  0.20131  0.99742  0.14239  0.0000
C34  C  1.0000  0.26872  0.93018  0.14283  0.0000
C35  C  1.0000  0.40126  0.99702  0.14308  0.0000
C36  C  1.0000  0.46958  0.93092  0.14339  0.0000
C37  C  1.0000  0.60239  0.00220  0.14322  0.0000
C38  C  1.0000  0.67214  0.93878  0.14311  0.0000
C39  C  1.0000  0.80390  0.00493  0.14259  0.0000
C40  C  1.0000  0.87137  0.93826  0.14247  0.0000
N1  N  1.0000  0.58435  0.39133  0.14420  0.0000
N2  N  1.0000  0.80818  0.61096  0.14395  0.0000
N3  N  1.0000  0.67696  0.74468  0.14372  0.0000
N4  N  1.0000  0.39404  0.39317  0.14376  0.0000
N5  N  1.0000  0.25764  0.52372  0.14310  0.0000
N6  N  1.0000  0.48290  0.73889  0.14434  0.0000
Cu1  Cu  1.0000  0.43299  0.56334  0.14481  0.0000
Zn1  Zn  1.0000  0.62951  0.56676  0.14539  0.0000
