data_CNCuZr
_audit_creation_method           'pos2cif.pl'
_cell_length_a               12.3170003891
_cell_length_b               12.3170003891315
_cell_length_c               20
_cell_angle_alpha            90
_cell_angle_beta             90
_cell_angle_gamma            120.010002136348
_symmetry_space_group_H-M        'P1'
_symmetry_Int_Tables_number      '1'
_symmetry_cell_setting           'triclinic'
loop_
_symmetry_equiv_pos_as_xyz
x,y,z

loop_
_atom_site_label
_atom_site_type_symbol
_atom_site_occupancy
_atom_site_fract_x
_atom_site_fract_y
_atom_site_fract_z
_atom_site_U_iso_or_equiv
C1  C  1.0000  0.00010  0.20052  0.14279  0.0000
C2  C  1.0000  0.06758  0.13470  0.14255  0.0000
C3  C  1.0000  0.20024  0.19998  0.14187  0.0000
C4  C  1.0000  0.26477  0.13011  0.14039  0.0000
C5  C  1.0000  0.39669  0.19570  0.13840  0.0000
C6  C  1.0000  0.46549  0.13073  0.13810  0.0000
C7  C  1.0000  0.59880  0.20060  0.13844  0.0000
C8  C  1.0000  0.66712  0.13505  0.14004  0.0000
C9  C  1.0000  0.79964  0.20281  0.14137  0.0000
C10  C  1.0000  0.86769  0.13643  0.14257  0.0000
C11  C  1.0000  0.99689  0.39978  0.14194  0.0000
C12  C  1.0000  0.06376  0.33181  0.14207  0.0000
C13  C  1.0000  0.19600  0.39731  0.14021  0.0000
C14  C  1.0000  0.26589  0.33189  0.14183  0.0000
C15  C  1.0000  0.46092  0.32787  0.13806  0.0000
C16  C  1.0000  0.66074  0.33289  0.13976  0.0000
C17  C  1.0000  0.79544  0.40431  0.14318  0.0000
C18  C  1.0000  0.86359  0.33623  0.14204  0.0000
C19  C  1.0000  -0.00143  0.60057  0.14459  0.0000
C20  C  1.0000  0.06466  0.53243  0.14174  0.0000
C21  C  1.0000  0.19940  0.59385  0.13903  0.0000
C22  C  1.0000  0.86434  0.53818  0.14749  0.0000
C23  C  1.0000  0.00309  0.80167  0.14558  0.0000
C24  C  1.0000  0.07009  0.73389  0.14431  0.0000
C25  C  1.0000  0.20368  0.79655  0.14155  0.0000
C26  C  1.0000  0.27254  0.72851  0.14004  0.0000
C27  C  1.0000  0.40848  0.79744  0.14090  0.0000
C28  C  1.0000  0.61000  0.80814  0.14626  0.0000
C29  C  1.0000  0.80549  0.80622  0.14876  0.0000
C30  C  1.0000  0.87045  0.73742  0.14965  0.0000
C31  C  1.0000  0.00351  0.00215  0.14347  0.0000
C32  C  1.0000  0.06844  0.93375  0.14316  0.0000
C33  C  1.0000  0.20111  0.99793  0.14114  0.0000
C34  C  1.0000  0.26834  0.93051  0.14056  0.0000
C35  C  1.0000  0.40101  0.99733  0.13936  0.0000
C36  C  1.0000  0.46960  0.93115  0.14044  0.0000
C37  C  1.0000  0.60259  0.00204  0.14101  0.0000
C38  C  1.0000  0.67263  0.93912  0.14373  0.0000
C39  C  1.0000  0.80485  0.00508  0.14408  0.0000
C40  C  1.0000  0.87153  0.93797  0.14536  0.0000
N1  N  1.0000  0.58927  0.39200  0.13904  0.0000
N2  N  1.0000  0.80203  0.60672  0.15532  0.0000
N3  N  1.0000  0.67448  0.74320  0.15256  0.0000
N4  N  1.0000  0.39990  0.39889  0.14020  0.0000
N5  N  1.0000  0.25764  0.52477  0.13568  0.0000
N6  N  1.0000  0.48290  0.74039  0.14252  0.0000
Cu1  Cu  1.0000  0.43110  0.56913  0.13346  0.0000
Zr1  Zr  1.0000  0.61398  0.55545  0.18535  0.0000
