data_CNFe
_audit_creation_method           'pos2cif.pl'
_cell_length_a               12.3170003891
_cell_length_b               12.3170003891315
_cell_length_c               20
_cell_angle_alpha            90
_cell_angle_beta             90
_cell_angle_gamma            120.010002136348
_symmetry_space_group_H-M        'P1'
_symmetry_Int_Tables_number      '1'
_symmetry_cell_setting           'triclinic'
loop_
_symmetry_equiv_pos_as_xyz
x,y,z

loop_
_atom_site_label
_atom_site_type_symbol
_atom_site_occupancy
_atom_site_fract_x
_atom_site_fract_y
_atom_site_fract_z
_atom_site_U_iso_or_equiv
C1  C  1.0000  0.99843  0.20000  0.14201  0.0000
C2  C  1.0000  0.06490  0.13271  0.14165  0.0000
C3  C  1.0000  0.19684  0.19620  0.14194  0.0000
C4  C  1.0000  0.26332  0.12858  0.14209  0.0000
C5  C  1.0000  0.39493  0.19484  0.14277  0.0000
C6  C  1.0000  0.46461  0.13090  0.14311  0.0000
C7  C  1.0000  0.59747  0.20283  0.14348  0.0000
C8  C  1.0000  0.66598  0.13667  0.14321  0.0000
C9  C  1.0000  0.79868  0.20416  0.14292  0.0000
C10  C  1.0000  0.86647  0.13714  0.14228  0.0000
C11  C  1.0000  0.99604  0.40013  0.14311  0.0000
C12  C  1.0000  0.06244  0.33174  0.14253  0.0000
C13  C  1.0000  0.19470  0.39572  0.14282  0.0000
C14  C  1.0000  0.26190  0.32737  0.14269  0.0000
C15  C  1.0000  0.45618  0.32686  0.14352  0.0000
C16  C  1.0000  0.65748  0.33690  0.14392  0.0000
C17  C  1.0000  0.79316  0.40582  0.14384  0.0000
C18  C  1.0000  0.86186  0.33776  0.14329  0.0000
C19  C  1.0000  0.00062  0.60115  0.14348  0.0000
C20  C  1.0000  0.06678  0.53265  0.14343  0.0000
C21  C  1.0000  0.20221  0.59297  0.14356  0.0000
C22  C  1.0000  0.86518  0.54082  0.14379  0.0000
C23  C  1.0000  0.00494  0.80206  0.14261  0.0000
C24  C  1.0000  0.07135  0.73367  0.14306  0.0000
C25  C  1.0000  0.20553  0.79605  0.14312  0.0000
C26  C  1.0000  0.27422  0.72798  0.14366  0.0000
C27  C  1.0000  0.40990  0.79690  0.14392  0.0000
C28  C  1.0000  0.61119  0.80693  0.14391  0.0000
C29  C  1.0000  0.80548  0.80642  0.14314  0.0000
C30  C  1.0000  0.87268  0.73808  0.14317  0.0000
C31  C  1.0000  0.00247  0.00109  0.14173  0.0000
C32  C  1.0000  0.06894  0.93380  0.14197  0.0000
C33  C  1.0000  0.20090  0.99666  0.14209  0.0000
C34  C  1.0000  0.26869  0.92964  0.14272  0.0000
C35  C  1.0000  0.40139  0.99712  0.14307  0.0000
C36  C  1.0000  0.46991  0.93097  0.14348  0.0000
C37  C  1.0000  0.60276  0.00290  0.14327  0.0000
C38  C  1.0000  0.67244  0.93895  0.14309  0.0000
C39  C  1.0000  0.80404  0.00521  0.14238  0.0000
C40  C  1.0000  0.87053  0.93758  0.14223  0.0000
N1  N  1.0000  0.58447  0.39580  0.14437  0.0000
N2  N  1.0000  0.80560  0.61035  0.14388  0.0000
N3  N  1.0000  0.67587  0.74156  0.14415  0.0000
N4  N  1.0000  0.39152  0.39225  0.14356  0.0000
N5  N  1.0000  0.26179  0.52345  0.14346  0.0000
N6  N  1.0000  0.48290  0.73799  0.14457  0.0000
Fe1  Fe  1.0000  0.44333  0.56669  0.14476  0.0000
Fe2  Fe  1.0000  0.62401  0.56711  0.14514  0.0000
