data_CNFeHf
_audit_creation_method           'pos2cif.pl'
_cell_length_a               12.3170003891
_cell_length_b               12.3170003891315
_cell_length_c               20
_cell_angle_alpha            90
_cell_angle_beta             90
_cell_angle_gamma            120.010002136348
_symmetry_space_group_H-M        'P1'
_symmetry_Int_Tables_number      '1'
_symmetry_cell_setting           'triclinic'
loop_
_symmetry_equiv_pos_as_xyz
x,y,z

loop_
_atom_site_label
_atom_site_type_symbol
_atom_site_occupancy
_atom_site_fract_x
_atom_site_fract_y
_atom_site_fract_z
_atom_site_U_iso_or_equiv
C1  C  1.0000  0.00064  0.20100  0.14476  0.0000
C2  C  1.0000  0.06713  0.13409  0.14359  0.0000
C3  C  1.0000  0.19959  0.19859  0.14093  0.0000
C4  C  1.0000  0.26402  0.12884  0.13851  0.0000
C5  C  1.0000  0.39572  0.19428  0.13538  0.0000
C6  C  1.0000  0.46542  0.13051  0.13669  0.0000
C7  C  1.0000  0.59866  0.20084  0.13786  0.0000
C8  C  1.0000  0.66734  0.13586  0.14152  0.0000
C9  C  1.0000  0.80011  0.20375  0.14373  0.0000
C10  C  1.0000  0.86814  0.13722  0.14536  0.0000
C11  C  1.0000  0.99767  0.40031  0.14425  0.0000
C12  C  1.0000  0.06500  0.33265  0.14406  0.0000
C13  C  1.0000  0.19763  0.39732  0.14137  0.0000
C14  C  1.0000  0.26534  0.33016  0.13975  0.0000
C15  C  1.0000  0.45924  0.32576  0.13256  0.0000
C16  C  1.0000  0.66025  0.33365  0.13828  0.0000
C17  C  1.0000  0.79480  0.40480  0.14381  0.0000
C18  C  1.0000  0.86391  0.33718  0.14404  0.0000
C19  C  1.0000  -0.00088  0.60064  0.14569  0.0000
C20  C  1.0000  0.06645  0.53290  0.14335  0.0000
C21  C  1.0000  0.20192  0.59395  0.14032  0.0000
C22  C  1.0000  0.86364  0.53928  0.14830  0.0000
C23  C  1.0000  0.00283  0.80120  0.14593  0.0000
C24  C  1.0000  0.06996  0.73355  0.14463  0.0000
C25  C  1.0000  0.20400  0.79628  0.14159  0.0000
C26  C  1.0000  0.27328  0.72879  0.14031  0.0000
C27  C  1.0000  0.40884  0.79861  0.14078  0.0000
C28  C  1.0000  0.61010  0.80879  0.14842  0.0000
C29  C  1.0000  0.80527  0.80654  0.15097  0.0000
C30  C  1.0000  0.87007  0.73696  0.15054  0.0000
C31  C  1.0000  0.00323  0.00177  0.14454  0.0000
C32  C  1.0000  0.06809  0.93324  0.14344  0.0000
C33  C  1.0000  0.20054  0.99693  0.14048  0.0000
C34  C  1.0000  0.26820  0.92997  0.14003  0.0000
C35  C  1.0000  0.40107  0.99735  0.13901  0.0000
C36  C  1.0000  0.46991  0.93196  0.14120  0.0000
C37  C  1.0000  0.60293  0.00288  0.14285  0.0000
C38  C  1.0000  0.67279  0.93975  0.14691  0.0000
C39  C  1.0000  0.80505  0.00570  0.14722  0.0000
C40  C  1.0000  0.87123  0.93794  0.14743  0.0000
N1  N  1.0000  0.58775  0.39142  0.13446  0.0000
N2  N  1.0000  0.80098  0.60733  0.15444  0.0000
N3  N  1.0000  0.67453  0.74341  0.15555  0.0000
N4  N  1.0000  0.39803  0.39639  0.13305  0.0000
N5  N  1.0000  0.26261  0.52555  0.13803  0.0000
N6  N  1.0000  0.48295  0.74142  0.14064  0.0000
Fe1  Fe  1.0000  0.44074  0.57331  0.12509  0.0000
Hf1  Hf  1.0000  0.60031  0.55052  0.18029  0.0000
