data_CNFeHg
_audit_creation_method           'pos2cif.pl'
_cell_length_a               12.3170003891
_cell_length_b               12.3170003891315
_cell_length_c               20
_cell_angle_alpha            90
_cell_angle_beta             90
_cell_angle_gamma            120.010002136348
_symmetry_space_group_H-M        'P1'
_symmetry_Int_Tables_number      '1'
_symmetry_cell_setting           'triclinic'
loop_
_symmetry_equiv_pos_as_xyz
x,y,z

loop_
_atom_site_label
_atom_site_type_symbol
_atom_site_occupancy
_atom_site_fract_x
_atom_site_fract_y
_atom_site_fract_z
_atom_site_U_iso_or_equiv
C1  C  1.0000  0.00093  0.19964  0.14010  0.0000
C2  C  1.0000  0.06579  0.13092  0.13971  0.0000
C3  C  1.0000  0.19925  0.19656  0.13977  0.0000
C4  C  1.0000  0.26554  0.12928  0.13945  0.0000
C5  C  1.0000  0.39789  0.19761  0.13966  0.0000
C6  C  1.0000  0.46651  0.13286  0.13981  0.0000
C7  C  1.0000  0.59950  0.20277  0.14031  0.0000
C8  C  1.0000  0.66817  0.13745  0.13997  0.0000
C9  C  1.0000  0.80119  0.20353  0.14033  0.0000
C10  C  1.0000  0.86860  0.13649  0.13977  0.0000
C11  C  1.0000  0.00031  0.40033  0.14142  0.0000
C12  C  1.0000  0.06687  0.33228  0.14089  0.0000
C13  C  1.0000  0.19989  0.39658  0.14118  0.0000
C14  C  1.0000  0.26798  0.32930  0.14038  0.0000
C15  C  1.0000  0.46509  0.33219  0.14048  0.0000
C16  C  1.0000  0.65927  0.33674  0.14148  0.0000
C17  C  1.0000  0.79679  0.40457  0.14191  0.0000
C18  C  1.0000  0.86514  0.33746  0.14133  0.0000
C19  C  1.0000  0.00478  0.60063  0.14131  0.0000
C20  C  1.0000  0.07181  0.53281  0.14156  0.0000
C21  C  1.0000  0.20751  0.59479  0.14173  0.0000
C22  C  1.0000  0.86929  0.53976  0.14183  0.0000
C23  C  1.0000  0.00211  0.79901  0.13988  0.0000
C24  C  1.0000  0.07106  0.73289  0.14062  0.0000
C25  C  1.0000  0.20564  0.79686  0.14055  0.0000
C26  C  1.0000  0.27479  0.72976  0.14120  0.0000
C27  C  1.0000  0.40926  0.80047  0.14070  0.0000
C28  C  1.0000  0.60962  0.80907  0.13916  0.0000
C29  C  1.0000  0.79453  0.79666  0.13909  0.0000
C30  C  1.0000  0.86683  0.72912  0.14018  0.0000
C31  C  1.0000  0.00013  -0.00242  0.13934  0.0000
C32  C  1.0000  0.06763  0.93138  0.13943  0.0000
C33  C  1.0000  0.20069  0.99643  0.13951  0.0000
C34  C  1.0000  0.26893  0.93025  0.13991  0.0000
C35  C  1.0000  0.40186  0.99885  0.13978  0.0000
C36  C  1.0000  0.47057  0.93411  0.13989  0.0000
C37  C  1.0000  0.60364  0.00469  0.13962  0.0000
C38  C  1.0000  0.67252  0.94060  0.13915  0.0000
C39  C  1.0000  0.80390  0.00340  0.13913  0.0000
C40  C  1.0000  0.86612  0.93118  0.13912  0.0000
N1  N  1.0000  0.59049  0.39630  0.14210  0.0000
N2  N  1.0000  0.80703  0.60433  0.14184  0.0000
N3  N  1.0000  0.66490  0.73746  0.13855  0.0000
N4  N  1.0000  0.39754  0.39750  0.14062  0.0000
N5  N  1.0000  0.26922  0.52545  0.14226  0.0000
N6  N  1.0000  0.48057  0.74240  0.14107  0.0000
Fe1  Fe  1.0000  0.44466  0.57797  0.14416  0.0000
Hg1  Hg  1.0000  0.56469  0.56290  0.27072  0.0000
