data_CNFeIr
_audit_creation_method           'pos2cif.pl'
_cell_length_a               12.3170003891
_cell_length_b               12.3170003891315
_cell_length_c               20
_cell_angle_alpha            90
_cell_angle_beta             90
_cell_angle_gamma            120.010002136348
_symmetry_space_group_H-M        'P1'
_symmetry_Int_Tables_number      '1'
_symmetry_cell_setting           'triclinic'
loop_
_symmetry_equiv_pos_as_xyz
x,y,z

loop_
_atom_site_label
_atom_site_type_symbol
_atom_site_occupancy
_atom_site_fract_x
_atom_site_fract_y
_atom_site_fract_z
_atom_site_U_iso_or_equiv
C1  C  1.0000  0.99831  0.20041  0.14157  0.0000
C2  C  1.0000  0.06498  0.13322  0.14101  0.0000
C3  C  1.0000  0.19646  0.19571  0.14144  0.0000
C4  C  1.0000  0.26245  0.12756  0.14161  0.0000
C5  C  1.0000  0.39359  0.19264  0.14259  0.0000
C6  C  1.0000  0.46409  0.12967  0.14302  0.0000
C7  C  1.0000  0.59681  0.20141  0.14353  0.0000
C8  C  1.0000  0.66586  0.13634  0.14325  0.0000
C9  C  1.0000  0.79856  0.20452  0.14289  0.0000
C10  C  1.0000  0.86662  0.13806  0.14202  0.0000
C11  C  1.0000  0.99565  0.40032  0.14323  0.0000
C12  C  1.0000  0.06183  0.33176  0.14242  0.0000
C13  C  1.0000  0.19387  0.39534  0.14289  0.0000
C14  C  1.0000  0.26112  0.32665  0.14262  0.0000
C15  C  1.0000  0.45366  0.32348  0.14364  0.0000
C16  C  1.0000  0.65673  0.33479  0.14411  0.0000
C17  C  1.0000  0.79278  0.40597  0.14406  0.0000
C18  C  1.0000  0.86150  0.33815  0.14339  0.0000
C19  C  1.0000  0.00069  0.60138  0.14375  0.0000
C20  C  1.0000  0.06652  0.53273  0.14370  0.0000
C21  C  1.0000  0.20161  0.59281  0.14388  0.0000
C22  C  1.0000  0.86552  0.54095  0.14409  0.0000
C23  C  1.0000  0.00610  0.80299  0.14246  0.0000
C24  C  1.0000  0.07167  0.73373  0.14314  0.0000
C25  C  1.0000  0.20573  0.79574  0.14315  0.0000
C26  C  1.0000  0.27428  0.72768  0.14387  0.0000
C27  C  1.0000  0.41023  0.79697  0.14407  0.0000
C28  C  1.0000  0.61213  0.80859  0.14409  0.0000
C29  C  1.0000  0.80778  0.80954  0.14316  0.0000
C30  C  1.0000  0.87477  0.74055  0.14326  0.0000
C31  C  1.0000  0.00329  0.00209  0.14110  0.0000
C32  C  1.0000  0.06937  0.93435  0.14144  0.0000
C33  C  1.0000  0.20078  0.99618  0.14158  0.0000
C34  C  1.0000  0.26861  0.92915  0.14251  0.0000
C35  C  1.0000  0.40112  0.99627  0.14298  0.0000
C36  C  1.0000  0.46991  0.93075  0.14356  0.0000
C37  C  1.0000  0.60289  0.00308  0.14333  0.0000
C38  C  1.0000  0.67319  0.94025  0.14313  0.0000
C39  C  1.0000  0.80454  0.00638  0.14218  0.0000
C40  C  1.0000  0.87184  0.93968  0.14190  0.0000
N1  N  1.0000  0.58184  0.39049  0.14465  0.0000
N2  N  1.0000  0.80855  0.61307  0.14427  0.0000
N3  N  1.0000  0.67898  0.74612  0.14441  0.0000
N4  N  1.0000  0.39001  0.39017  0.14386  0.0000
N5  N  1.0000  0.26041  0.52266  0.14384  0.0000
N6  N  1.0000  0.48375  0.73914  0.14473  0.0000
Fe1  Fe  1.0000  0.44159  0.56643  0.14520  0.0000
Ir1  Ir  1.0000  0.62447  0.56521  0.14535  0.0000
