data_CNFeMn
_audit_creation_method           'pos2cif.pl'
_cell_length_a               12.3170003891
_cell_length_b               12.3170003891315
_cell_length_c               20
_cell_angle_alpha            90
_cell_angle_beta             90
_cell_angle_gamma            120.010002136348
_symmetry_space_group_H-M        'P1'
_symmetry_Int_Tables_number      '1'
_symmetry_cell_setting           'triclinic'
loop_
_symmetry_equiv_pos_as_xyz
x,y,z

loop_
_atom_site_label
_atom_site_type_symbol
_atom_site_occupancy
_atom_site_fract_x
_atom_site_fract_y
_atom_site_fract_z
_atom_site_U_iso_or_equiv
C1  C  1.0000  0.99867  0.19954  0.14195  0.0000
C2  C  1.0000  0.06502  0.13245  0.14154  0.0000
C3  C  1.0000  0.19720  0.19647  0.14182  0.0000
C4  C  1.0000  0.26324  0.12866  0.14193  0.0000
C5  C  1.0000  0.39493  0.19542  0.14263  0.0000
C6  C  1.0000  0.46469  0.13153  0.14303  0.0000
C7  C  1.0000  0.59775  0.20223  0.14345  0.0000
C8  C  1.0000  0.66631  0.13657  0.14321  0.0000
C9  C  1.0000  0.79904  0.20353  0.14294  0.0000
C10  C  1.0000  0.86657  0.13633  0.14225  0.0000
C11  C  1.0000  0.99675  0.39970  0.14322  0.0000
C12  C  1.0000  0.06302  0.33130  0.14258  0.0000
C13  C  1.0000  0.19513  0.39516  0.14287  0.0000
C14  C  1.0000  0.26291  0.32798  0.14260  0.0000
C15  C  1.0000  0.45657  0.32739  0.14337  0.0000
C16  C  1.0000  0.65843  0.33567  0.14394  0.0000
C17  C  1.0000  0.79407  0.40474  0.14394  0.0000
C18  C  1.0000  0.86270  0.33692  0.14337  0.0000
C19  C  1.0000  0.00158  0.60071  0.14361  0.0000
C20  C  1.0000  0.06764  0.53234  0.14357  0.0000
C21  C  1.0000  0.20293  0.59323  0.14370  0.0000
C22  C  1.0000  0.86663  0.53949  0.14396  0.0000
C23  C  1.0000  0.00416  0.80165  0.14256  0.0000
C24  C  1.0000  0.07094  0.73351  0.14310  0.0000
C25  C  1.0000  0.20480  0.79631  0.14313  0.0000
C26  C  1.0000  0.27355  0.72843  0.14372  0.0000
C27  C  1.0000  0.40869  0.79875  0.14396  0.0000
C28  C  1.0000  0.60930  0.80805  0.14394  0.0000
C29  C  1.0000  0.80378  0.80479  0.14310  0.0000
C30  C  1.0000  0.87184  0.73726  0.14320  0.0000
C31  C  1.0000  0.00182  0.00041  0.14158  0.0000
C32  C  1.0000  0.06833  0.93339  0.14182  0.0000
C33  C  1.0000  0.20049  0.99673  0.14195  0.0000
C34  C  1.0000  0.26823  0.93001  0.14265  0.0000
C35  C  1.0000  0.40095  0.99805  0.14304  0.0000
C36  C  1.0000  0.46950  0.93237  0.14351  0.0000
C37  C  1.0000  0.60234  0.00330  0.14328  0.0000
C38  C  1.0000  0.67178  0.93933  0.14309  0.0000
C39  C  1.0000  0.80363  0.00458  0.14234  0.0000
C40  C  1.0000  0.86964  0.93640  0.14214  0.0000
N1  N  1.0000  0.58520  0.39342  0.14433  0.0000
N2  N  1.0000  0.80726  0.60854  0.14414  0.0000
N3  N  1.0000  0.67266  0.74175  0.14421  0.0000
N4  N  1.0000  0.39328  0.39450  0.14341  0.0000
N5  N  1.0000  0.26217  0.52313  0.14361  0.0000
N6  N  1.0000  0.48124  0.74040  0.14452  0.0000
Fe1  Fe  1.0000  0.44020  0.57180  0.14446  0.0000
Mn1  Mn  1.0000  0.62946  0.56695  0.14567  0.0000
