data_CNFeMo
_audit_creation_method           'pos2cif.pl'
_cell_length_a               12.3170003891
_cell_length_b               12.3170003891315
_cell_length_c               20
_cell_angle_alpha            90
_cell_angle_beta             90
_cell_angle_gamma            120.010002136348
_symmetry_space_group_H-M        'P1'
_symmetry_Int_Tables_number      '1'
_symmetry_cell_setting           'triclinic'
loop_
_symmetry_equiv_pos_as_xyz
x,y,z

loop_
_atom_site_label
_atom_site_type_symbol
_atom_site_occupancy
_atom_site_fract_x
_atom_site_fract_y
_atom_site_fract_z
_atom_site_U_iso_or_equiv
C1  C  1.0000  -0.00004  0.20118  0.14056  0.0000
C2  C  1.0000  0.06592  0.13358  0.13843  0.0000
C3  C  1.0000  0.19779  0.19658  0.13707  0.0000
C4  C  1.0000  0.26309  0.12772  0.13562  0.0000
C5  C  1.0000  0.39453  0.19291  0.13630  0.0000
C6  C  1.0000  0.46458  0.12937  0.13810  0.0000
C7  C  1.0000  0.59781  0.20156  0.14053  0.0000
C8  C  1.0000  0.66684  0.13657  0.14111  0.0000
C9  C  1.0000  0.79951  0.20468  0.14254  0.0000
C10  C  1.0000  0.86784  0.13822  0.14179  0.0000
C11  C  1.0000  0.99706  0.40071  0.14436  0.0000
C12  C  1.0000  0.06432  0.33288  0.14211  0.0000
C13  C  1.0000  0.19667  0.39674  0.14172  0.0000
C14  C  1.0000  0.26289  0.32761  0.13892  0.0000
C15  C  1.0000  0.45540  0.32407  0.13923  0.0000
C16  C  1.0000  0.65820  0.33425  0.14473  0.0000
C17  C  1.0000  0.79343  0.40552  0.14683  0.0000
C18  C  1.0000  0.86288  0.33812  0.14456  0.0000
C19  C  1.0000  -0.00096  0.60082  0.14600  0.0000
C20  C  1.0000  0.06678  0.53291  0.14497  0.0000
C21  C  1.0000  0.20278  0.59336  0.14397  0.0000
C22  C  1.0000  0.86353  0.54050  0.14868  0.0000
C23  C  1.0000  0.00385  0.80160  0.14273  0.0000
C24  C  1.0000  0.07060  0.73351  0.14341  0.0000
C25  C  1.0000  0.20474  0.79540  0.14123  0.0000
C26  C  1.0000  0.27419  0.72768  0.14243  0.0000
C27  C  1.0000  0.41019  0.79637  0.14207  0.0000
C28  C  1.0000  0.61236  0.81002  0.14754  0.0000
C29  C  1.0000  0.80753  0.80915  0.14866  0.0000
C30  C  1.0000  0.87154  0.73874  0.14745  0.0000
C31  C  1.0000  0.00335  0.00200  0.13938  0.0000
C32  C  1.0000  0.06845  0.93336  0.13916  0.0000
C33  C  1.0000  0.20042  0.99575  0.13704  0.0000
C34  C  1.0000  0.26829  0.92891  0.13842  0.0000
C35  C  1.0000  0.40127  0.99616  0.13850  0.0000
C36  C  1.0000  0.47036  0.93040  0.14058  0.0000
C37  C  1.0000  0.60309  0.00318  0.14113  0.0000
C38  C  1.0000  0.67341  0.94059  0.14371  0.0000
C39  C  1.0000  0.80537  0.00684  0.14315  0.0000
C40  C  1.0000  0.87190  0.93943  0.14318  0.0000
N1  N  1.0000  0.58404  0.39134  0.14835  0.0000
N2  N  1.0000  0.80177  0.61022  0.15186  0.0000
N3  N  1.0000  0.67843  0.74702  0.15561  0.0000
N4  N  1.0000  0.39261  0.39110  0.13854  0.0000
N5  N  1.0000  0.26404  0.52476  0.14355  0.0000
N6  N  1.0000  0.48417  0.73794  0.14394  0.0000
Fe1  Fe  1.0000  0.44668  0.56879  0.14206  0.0000
Mo1  Mo  1.0000  0.60354  0.56105  0.17015  0.0000
