data_CNFeNb
_audit_creation_method           'pos2cif.pl'
_cell_length_a               12.3170003891
_cell_length_b               12.3170003891315
_cell_length_c               20
_cell_angle_alpha            90
_cell_angle_beta             90
_cell_angle_gamma            120.010002136348
_symmetry_space_group_H-M        'P1'
_symmetry_Int_Tables_number      '1'
_symmetry_cell_setting           'triclinic'
loop_
_symmetry_equiv_pos_as_xyz
x,y,z

loop_
_atom_site_label
_atom_site_type_symbol
_atom_site_occupancy
_atom_site_fract_x
_atom_site_fract_y
_atom_site_fract_z
_atom_site_U_iso_or_equiv
C1  C  1.0000  -0.00022  0.20073  0.13948  0.0000
C2  C  1.0000  0.06591  0.13328  0.13701  0.0000
C3  C  1.0000  0.19784  0.19671  0.13452  0.0000
C4  C  1.0000  0.26338  0.12797  0.13335  0.0000
C5  C  1.0000  0.39509  0.19360  0.13337  0.0000
C6  C  1.0000  0.46507  0.13014  0.13632  0.0000
C7  C  1.0000  0.59810  0.20192  0.13939  0.0000
C8  C  1.0000  0.66683  0.13665  0.14137  0.0000
C9  C  1.0000  0.79957  0.20438  0.14264  0.0000
C10  C  1.0000  0.86764  0.13763  0.14188  0.0000
C11  C  1.0000  0.99696  0.40033  0.14397  0.0000
C12  C  1.0000  0.06395  0.33242  0.14078  0.0000
C13  C  1.0000  0.19647  0.39661  0.13976  0.0000
C14  C  1.0000  0.26310  0.32783  0.13580  0.0000
C15  C  1.0000  0.45690  0.32516  0.13499  0.0000
C16  C  1.0000  0.65878  0.33527  0.14254  0.0000
C17  C  1.0000  0.79374  0.40547  0.14639  0.0000
C18  C  1.0000  0.86292  0.33774  0.14438  0.0000
C19  C  1.0000  -0.00023  0.60095  0.14678  0.0000
C20  C  1.0000  0.06670  0.53282  0.14497  0.0000
C21  C  1.0000  0.20232  0.59321  0.14388  0.0000
C22  C  1.0000  0.86410  0.54049  0.14985  0.0000
C23  C  1.0000  0.00398  0.80146  0.14379  0.0000
C24  C  1.0000  0.07083  0.73352  0.14431  0.0000
C25  C  1.0000  0.20513  0.79582  0.14174  0.0000
C26  C  1.0000  0.27430  0.72809  0.14304  0.0000
C27  C  1.0000  0.41014  0.79692  0.14295  0.0000
C28  C  1.0000  0.61164  0.80983  0.15018  0.0000
C29  C  1.0000  0.80735  0.80842  0.15110  0.0000
C30  C  1.0000  0.87156  0.73782  0.14988  0.0000
C31  C  1.0000  0.00325  0.00156  0.13915  0.0000
C32  C  1.0000  0.06851  0.93313  0.13901  0.0000
C33  C  1.0000  0.20066  0.99609  0.13609  0.0000
C34  C  1.0000  0.26858  0.92932  0.13815  0.0000
C35  C  1.0000  0.40145  0.99661  0.13803  0.0000
C36  C  1.0000  0.47030  0.93094  0.14126  0.0000
C37  C  1.0000  0.60309  0.00339  0.14231  0.0000
C38  C  1.0000  0.67311  0.94043  0.14612  0.0000
C39  C  1.0000  0.80518  0.00624  0.14455  0.0000
C40  C  1.0000  0.87186  0.93877  0.14441  0.0000
N1  N  1.0000  0.58508  0.39261  0.14265  0.0000
N2  N  1.0000  0.80320  0.60931  0.15515  0.0000
N3  N  1.0000  0.67844  0.74751  0.15889  0.0000
N4  N  1.0000  0.39346  0.39211  0.13454  0.0000
N5  N  1.0000  0.26273  0.52453  0.14257  0.0000
N6  N  1.0000  0.48394  0.73846  0.14498  0.0000
Fe1  Fe  1.0000  0.44404  0.56777  0.14108  0.0000
Nb1  Nb  1.0000  0.60029  0.55917  0.18259  0.0000
