data_CNFeNi
_audit_creation_method           'pos2cif.pl'
_cell_length_a               12.3170003891
_cell_length_b               12.3170003891315
_cell_length_c               20
_cell_angle_alpha            90
_cell_angle_beta             90
_cell_angle_gamma            120.010002136348
_symmetry_space_group_H-M        'P1'
_symmetry_Int_Tables_number      '1'
_symmetry_cell_setting           'triclinic'
loop_
_symmetry_equiv_pos_as_xyz
x,y,z

loop_
_atom_site_label
_atom_site_type_symbol
_atom_site_occupancy
_atom_site_fract_x
_atom_site_fract_y
_atom_site_fract_z
_atom_site_U_iso_or_equiv
C1  C  1.0000  0.99833  0.19979  0.14236  0.0000
C2  C  1.0000  0.06461  0.13233  0.14199  0.0000
C3  C  1.0000  0.19669  0.19614  0.14208  0.0000
C4  C  1.0000  0.26360  0.12901  0.14222  0.0000
C5  C  1.0000  0.39540  0.19581  0.14286  0.0000
C6  C  1.0000  0.46482  0.13165  0.14332  0.0000
C7  C  1.0000  0.59751  0.20330  0.14366  0.0000
C8  C  1.0000  0.66592  0.13681  0.14339  0.0000
C9  C  1.0000  0.79863  0.20391  0.14316  0.0000
C10  C  1.0000  0.86623  0.13672  0.14266  0.0000
C11  C  1.0000  0.99614  0.40004  0.14333  0.0000
C12  C  1.0000  0.06264  0.33172  0.14289  0.0000
C13  C  1.0000  0.19500  0.39564  0.14311  0.0000
C14  C  1.0000  0.26216  0.32758  0.14257  0.0000
C15  C  1.0000  0.45732  0.32842  0.14339  0.0000
C16  C  1.0000  0.65763  0.33796  0.14405  0.0000
C17  C  1.0000  0.79332  0.40576  0.14383  0.0000
C18  C  1.0000  0.86196  0.33766  0.14343  0.0000
C19  C  1.0000  0.00100  0.60114  0.14345  0.0000
C20  C  1.0000  0.06710  0.53266  0.14353  0.0000
C21  C  1.0000  0.20267  0.59334  0.14370  0.0000
C22  C  1.0000  0.86534  0.54056  0.14366  0.0000
C23  C  1.0000  0.00447  0.80170  0.14259  0.0000
C24  C  1.0000  0.07120  0.73365  0.14303  0.0000
C25  C  1.0000  0.20535  0.79630  0.14313  0.0000
C26  C  1.0000  0.27396  0.72825  0.14356  0.0000
C27  C  1.0000  0.40937  0.79750  0.14358  0.0000
C28  C  1.0000  0.61013  0.80554  0.14358  0.0000
C29  C  1.0000  0.80384  0.80460  0.14298  0.0000
C30  C  1.0000  0.87197  0.73716  0.14296  0.0000
C31  C  1.0000  0.00165  0.00033  0.14201  0.0000
C32  C  1.0000  0.06859  0.93352  0.14213  0.0000
C33  C  1.0000  0.20079  0.99685  0.14229  0.0000
C34  C  1.0000  0.26865  0.92998  0.14286  0.0000
C35  C  1.0000  0.40136  0.99765  0.14327  0.0000
C36  C  1.0000  0.46977  0.93161  0.14354  0.0000
C37  C  1.0000  0.60255  0.00275  0.14338  0.0000
C38  C  1.0000  0.67190  0.93817  0.14328  0.0000
C39  C  1.0000  0.80345  0.00443  0.14276  0.0000
C40  C  1.0000  0.86947  0.93631  0.14245  0.0000
N1  N  1.0000  0.58525  0.39732  0.14449  0.0000
N2  N  1.0000  0.80578  0.60955  0.14352  0.0000
N3  N  1.0000  0.67393  0.73909  0.14386  0.0000
N4  N  1.0000  0.39185  0.39270  0.14297  0.0000
N5  N  1.0000  0.26255  0.52381  0.14384  0.0000
N6  N  1.0000  0.48176  0.73861  0.14331  0.0000
Fe1  Fe  1.0000  0.44295  0.56793  0.14268  0.0000
Ni1  Ni  1.0000  0.63046  0.56790  0.14527  0.0000
