data_CNFeOs
_audit_creation_method           'pos2cif.pl'
_cell_length_a               12.3170003891
_cell_length_b               12.3170003891315
_cell_length_c               20
_cell_angle_alpha            90
_cell_angle_beta             90
_cell_angle_gamma            120.010002136348
_symmetry_space_group_H-M        'P1'
_symmetry_Int_Tables_number      '1'
_symmetry_cell_setting           'triclinic'
loop_
_symmetry_equiv_pos_as_xyz
x,y,z

loop_
_atom_site_label
_atom_site_type_symbol
_atom_site_occupancy
_atom_site_fract_x
_atom_site_fract_y
_atom_site_fract_z
_atom_site_U_iso_or_equiv
C1  C  1.0000  0.99993  0.20167  0.14136  0.0000
C2  C  1.0000  0.06602  0.13401  0.14055  0.0000
C3  C  1.0000  0.19749  0.19623  0.14103  0.0000
C4  C  1.0000  0.26213  0.12687  0.14120  0.0000
C5  C  1.0000  0.39331  0.19124  0.14236  0.0000
C6  C  1.0000  0.46405  0.12859  0.14301  0.0000
C7  C  1.0000  0.59693  0.20011  0.14364  0.0000
C8  C  1.0000  0.66656  0.13606  0.14345  0.0000
C9  C  1.0000  0.79945  0.20503  0.14301  0.0000
C10  C  1.0000  0.86782  0.13897  0.14193  0.0000
C11  C  1.0000  0.99699  0.40099  0.14354  0.0000
C12  C  1.0000  0.06426  0.33323  0.14250  0.0000
C13  C  1.0000  0.19677  0.39656  0.14299  0.0000
C14  C  1.0000  0.26327  0.32783  0.14242  0.0000
C15  C  1.0000  0.45335  0.32130  0.14340  0.0000
C16  C  1.0000  0.65739  0.33286  0.14414  0.0000
C17  C  1.0000  0.79303  0.40583  0.14427  0.0000
C18  C  1.0000  0.86280  0.33871  0.14361  0.0000
C19  C  1.0000  -0.00091  0.60111  0.14419  0.0000
C20  C  1.0000  0.06720  0.53329  0.14418  0.0000
C21  C  1.0000  0.20329  0.59375  0.14433  0.0000
C22  C  1.0000  0.86291  0.54049  0.14443  0.0000
C23  C  1.0000  0.00430  0.80225  0.14236  0.0000
C24  C  1.0000  0.07045  0.73342  0.14336  0.0000
C25  C  1.0000  0.20457  0.79525  0.14334  0.0000
C26  C  1.0000  0.27403  0.72788  0.14421  0.0000
C27  C  1.0000  0.40988  0.79737  0.14432  0.0000
C28  C  1.0000  0.61261  0.80928  0.14407  0.0000
C29  C  1.0000  0.80706  0.80981  0.14293  0.0000
C30  C  1.0000  0.87279  0.74083  0.14320  0.0000
C31  C  1.0000  0.00326  0.00235  0.14058  0.0000
C32  C  1.0000  0.06842  0.93380  0.14103  0.0000
C33  C  1.0000  0.20004  0.99547  0.14124  0.0000
C34  C  1.0000  0.26796  0.92858  0.14247  0.0000
C35  C  1.0000  0.40069  0.99562  0.14307  0.0000
C36  C  1.0000  0.47006  0.93077  0.14381  0.0000
C37  C  1.0000  0.60309  0.00300  0.14358  0.0000
C38  C  1.0000  0.67358  0.94057  0.14324  0.0000
C39  C  1.0000  0.80519  0.00732  0.14205  0.0000
C40  C  1.0000  0.87179  0.94022  0.14157  0.0000
N1  N  1.0000  0.58239  0.38787  0.14444  0.0000
N2  N  1.0000  0.80304  0.61281  0.14445  0.0000
N3  N  1.0000  0.67770  0.74506  0.14420  0.0000
N4  N  1.0000  0.39222  0.39054  0.14363  0.0000
N5  N  1.0000  0.26495  0.52454  0.14421  0.0000
N6  N  1.0000  0.48346  0.73977  0.14478  0.0000
Fe1  Fe  1.0000  0.44484  0.57367  0.14512  0.0000
Os1  Os  1.0000  0.61463  0.55838  0.14513  0.0000
