data_CNFePd
_audit_creation_method           'pos2cif.pl'
_cell_length_a               12.3170003891
_cell_length_b               12.3170003891315
_cell_length_c               20
_cell_angle_alpha            90
_cell_angle_beta             90
_cell_angle_gamma            120.010002136348
_symmetry_space_group_H-M        'P1'
_symmetry_Int_Tables_number      '1'
_symmetry_cell_setting           'triclinic'
loop_
_symmetry_equiv_pos_as_xyz
x,y,z

loop_
_atom_site_label
_atom_site_type_symbol
_atom_site_occupancy
_atom_site_fract_x
_atom_site_fract_y
_atom_site_fract_z
_atom_site_U_iso_or_equiv
C1  C  1.0000  0.99829  0.19983  0.14180  0.0000
C2  C  1.0000  0.06482  0.13267  0.14134  0.0000
C3  C  1.0000  0.19644  0.19571  0.14159  0.0000
C4  C  1.0000  0.26279  0.12797  0.14169  0.0000
C5  C  1.0000  0.39398  0.19368  0.14249  0.0000
C6  C  1.0000  0.46443  0.13066  0.14300  0.0000
C7  C  1.0000  0.59718  0.20176  0.14349  0.0000
C8  C  1.0000  0.66608  0.13668  0.14319  0.0000
C9  C  1.0000  0.79871  0.20404  0.14291  0.0000
C10  C  1.0000  0.86648  0.13730  0.14215  0.0000
C11  C  1.0000  0.99606  0.39991  0.14322  0.0000
C12  C  1.0000  0.06223  0.33142  0.14253  0.0000
C13  C  1.0000  0.19412  0.39475  0.14291  0.0000
C14  C  1.0000  0.26136  0.32677  0.14254  0.0000
C15  C  1.0000  0.45511  0.32536  0.14353  0.0000
C16  C  1.0000  0.65730  0.33554  0.14416  0.0000
C17  C  1.0000  0.79342  0.40540  0.14400  0.0000
C18  C  1.0000  0.86203  0.33764  0.14337  0.0000
C19  C  1.0000  0.00204  0.60117  0.14361  0.0000
C20  C  1.0000  0.06733  0.53252  0.14361  0.0000
C21  C  1.0000  0.20243  0.59317  0.14380  0.0000
C22  C  1.0000  0.86687  0.54052  0.14392  0.0000
C23  C  1.0000  0.00561  0.80239  0.14250  0.0000
C24  C  1.0000  0.07175  0.73371  0.14310  0.0000
C25  C  1.0000  0.20561  0.79614  0.14314  0.0000
C26  C  1.0000  0.27414  0.72814  0.14377  0.0000
C27  C  1.0000  0.40955  0.79783  0.14398  0.0000
C28  C  1.0000  0.61092  0.80848  0.14402  0.0000
C29  C  1.0000  0.80582  0.80728  0.14309  0.0000
C30  C  1.0000  0.87364  0.73858  0.14312  0.0000
C31  C  1.0000  0.00259  0.00114  0.14142  0.0000
C32  C  1.0000  0.06906  0.93378  0.14170  0.0000
C33  C  1.0000  0.20073  0.99635  0.14181  0.0000
C34  C  1.0000  0.26863  0.92960  0.14261  0.0000
C35  C  1.0000  0.40115  0.99707  0.14301  0.0000
C36  C  1.0000  0.46988  0.93171  0.14351  0.0000
C37  C  1.0000  0.60267  0.00337  0.14324  0.0000
C38  C  1.0000  0.67252  0.94019  0.14309  0.0000
C39  C  1.0000  0.80401  0.00545  0.14228  0.0000
C40  C  1.0000  0.87100  0.93826  0.14203  0.0000
N1  N  1.0000  0.58260  0.39049  0.14489  0.0000
N2  N  1.0000  0.81037  0.61127  0.14395  0.0000
N3  N  1.0000  0.67688  0.74618  0.14442  0.0000
N4  N  1.0000  0.39071  0.39135  0.14357  0.0000
N5  N  1.0000  0.26120  0.52290  0.14380  0.0000
N6  N  1.0000  0.48232  0.73969  0.14444  0.0000
Fe1  Fe  1.0000  0.43774  0.56811  0.14456  0.0000
Pd1  Pd  1.0000  0.62644  0.56721  0.14602  0.0000
