data_CNFePt
_audit_creation_method           'pos2cif.pl'
_cell_length_a               12.3170003891
_cell_length_b               12.3170003891315
_cell_length_c               20
_cell_angle_alpha            90
_cell_angle_beta             90
_cell_angle_gamma            120.010002136348
_symmetry_space_group_H-M        'P1'
_symmetry_Int_Tables_number      '1'
_symmetry_cell_setting           'triclinic'
loop_
_symmetry_equiv_pos_as_xyz
x,y,z

loop_
_atom_site_label
_atom_site_type_symbol
_atom_site_occupancy
_atom_site_fract_x
_atom_site_fract_y
_atom_site_fract_z
_atom_site_U_iso_or_equiv
C1  C  1.0000  0.99811  0.19997  0.14135  0.0000
C2  C  1.0000  0.06472  0.13286  0.14052  0.0000
C3  C  1.0000  0.19606  0.19533  0.14099  0.0000
C4  C  1.0000  0.26253  0.12770  0.14120  0.0000
C5  C  1.0000  0.39364  0.19321  0.14237  0.0000
C6  C  1.0000  0.46430  0.13037  0.14302  0.0000
C7  C  1.0000  0.59699  0.20183  0.14367  0.0000
C8  C  1.0000  0.66594  0.13667  0.14346  0.0000
C9  C  1.0000  0.79856  0.20426  0.14303  0.0000
C10  C  1.0000  0.86635  0.13753  0.14194  0.0000
C11  C  1.0000  0.99574  0.39999  0.14354  0.0000
C12  C  1.0000  0.06187  0.33142  0.14249  0.0000
C13  C  1.0000  0.19365  0.39448  0.14296  0.0000
C14  C  1.0000  0.26052  0.32620  0.14241  0.0000
C15  C  1.0000  0.45380  0.32437  0.14343  0.0000
C16  C  1.0000  0.65709  0.33561  0.14420  0.0000
C17  C  1.0000  0.79307  0.40578  0.14429  0.0000
C18  C  1.0000  0.86180  0.33786  0.14363  0.0000
C19  C  1.0000  0.00182  0.60129  0.14411  0.0000
C20  C  1.0000  0.06707  0.53256  0.14415  0.0000
C21  C  1.0000  0.20221  0.59296  0.14429  0.0000
C22  C  1.0000  0.86668  0.54073  0.14434  0.0000
C23  C  1.0000  0.00631  0.80291  0.14236  0.0000
C24  C  1.0000  0.07205  0.73385  0.14333  0.0000
C25  C  1.0000  0.20578  0.79599  0.14334  0.0000
C26  C  1.0000  0.27430  0.72782  0.14422  0.0000
C27  C  1.0000  0.40983  0.79738  0.14434  0.0000
C28  C  1.0000  0.61126  0.80825  0.14412  0.0000
C29  C  1.0000  0.80752  0.80870  0.14298  0.0000
C30  C  1.0000  0.87486  0.74009  0.14320  0.0000
C31  C  1.0000  0.00291  0.00157  0.14057  0.0000
C32  C  1.0000  0.06936  0.93413  0.14102  0.0000
C33  C  1.0000  0.20087  0.99627  0.14124  0.0000
C34  C  1.0000  0.26873  0.92945  0.14248  0.0000
C35  C  1.0000  0.40120  0.99682  0.14308  0.0000
C36  C  1.0000  0.46992  0.93133  0.14382  0.0000
C37  C  1.0000  0.60265  0.00321  0.14359  0.0000
C38  C  1.0000  0.67265  0.94000  0.14327  0.0000
C39  C  1.0000  0.80413  0.00581  0.14207  0.0000
C40  C  1.0000  0.87162  0.93920  0.14159  0.0000
N1  N  1.0000  0.58175  0.39057  0.14454  0.0000
N2  N  1.0000  0.81066  0.61248  0.14432  0.0000
N3  N  1.0000  0.67856  0.74654  0.14427  0.0000
N4  N  1.0000  0.38952  0.39016  0.14364  0.0000
N5  N  1.0000  0.26086  0.52260  0.14413  0.0000
N6  N  1.0000  0.48290  0.73929  0.14482  0.0000
Fe1  Fe  1.0000  0.43770  0.56670  0.14509  0.0000
Pt1  Pt  1.0000  0.62663  0.56711  0.14509  0.0000
