data_CNFeRe
_audit_creation_method           'pos2cif.pl'
_cell_length_a               12.3170003891
_cell_length_b               12.3170003891315
_cell_length_c               20
_cell_angle_alpha            90
_cell_angle_beta             90
_cell_angle_gamma            120.010002136348
_symmetry_space_group_H-M        'P1'
_symmetry_Int_Tables_number      '1'
_symmetry_cell_setting           'triclinic'
loop_
_symmetry_equiv_pos_as_xyz
x,y,z

loop_
_atom_site_label
_atom_site_type_symbol
_atom_site_occupancy
_atom_site_fract_x
_atom_site_fract_y
_atom_site_fract_z
_atom_site_U_iso_or_equiv
C1  C  1.0000  -0.00007  0.20158  0.14174  0.0000
C2  C  1.0000  0.06622  0.13429  0.14122  0.0000
C3  C  1.0000  0.19777  0.19672  0.14161  0.0000
C4  C  1.0000  0.26243  0.12727  0.14165  0.0000
C5  C  1.0000  0.39344  0.19135  0.14245  0.0000
C6  C  1.0000  0.46400  0.12839  0.14289  0.0000
C7  C  1.0000  0.59722  0.20034  0.14334  0.0000
C8  C  1.0000  0.66649  0.13594  0.14307  0.0000
C9  C  1.0000  0.79930  0.20481  0.14282  0.0000
C10  C  1.0000  0.86785  0.13882  0.14206  0.0000
C11  C  1.0000  0.99673  0.40084  0.14326  0.0000
C12  C  1.0000  0.06407  0.33309  0.14258  0.0000
C13  C  1.0000  0.19639  0.39687  0.14306  0.0000
C14  C  1.0000  0.26305  0.32797  0.14270  0.0000
C15  C  1.0000  0.45347  0.32162  0.14345  0.0000
C16  C  1.0000  0.65768  0.33284  0.14404  0.0000
C17  C  1.0000  0.79315  0.40583  0.14403  0.0000
C18  C  1.0000  0.86260  0.33835  0.14333  0.0000
C19  C  1.0000  -0.00155  0.60090  0.14379  0.0000
C20  C  1.0000  0.06639  0.53304  0.14373  0.0000
C21  C  1.0000  0.20227  0.59336  0.14391  0.0000
C22  C  1.0000  0.86302  0.54043  0.14418  0.0000
C23  C  1.0000  0.00448  0.80248  0.14243  0.0000
C24  C  1.0000  0.07049  0.73357  0.14315  0.0000
C25  C  1.0000  0.20450  0.79514  0.14314  0.0000
C26  C  1.0000  0.27388  0.72747  0.14379  0.0000
C27  C  1.0000  0.41002  0.79639  0.14385  0.0000
C28  C  1.0000  0.61308  0.80980  0.14396  0.0000
C29  C  1.0000  0.80827  0.81041  0.14311  0.0000
C30  C  1.0000  0.87293  0.74093  0.14319  0.0000
C31  C  1.0000  0.00375  0.00287  0.14119  0.0000
C32  C  1.0000  0.06869  0.93407  0.14151  0.0000
C33  C  1.0000  0.20024  0.99563  0.14167  0.0000
C34  C  1.0000  0.26801  0.92863  0.14252  0.0000
C35  C  1.0000  0.40084  0.99552  0.14291  0.0000
C36  C  1.0000  0.47010  0.93008  0.14339  0.0000
C37  C  1.0000  0.60298  0.00273  0.14312  0.0000
C38  C  1.0000  0.67366  0.94058  0.14298  0.0000
C39  C  1.0000  0.80556  0.00742  0.14217  0.0000
C40  C  1.0000  0.87248  0.94081  0.14188  0.0000
N1  N  1.0000  0.58296  0.38866  0.14485  0.0000
N2  N  1.0000  0.80238  0.61261  0.14443  0.0000
N3  N  1.0000  0.67916  0.74623  0.14467  0.0000
N4  N  1.0000  0.39233  0.39039  0.14365  0.0000
N5  N  1.0000  0.26346  0.52450  0.14394  0.0000
N6  N  1.0000  0.48414  0.73852  0.14430  0.0000
Fe1  Fe  1.0000  0.44628  0.57166  0.14463  0.0000
Re1  Re  1.0000  0.61043  0.55935  0.14661  0.0000
