data_CNFeRh
_audit_creation_method           'pos2cif.pl'
_cell_length_a               12.3170003891
_cell_length_b               12.3170003891315
_cell_length_c               20
_cell_angle_alpha            90
_cell_angle_beta             90
_cell_angle_gamma            120.010002136348
_symmetry_space_group_H-M        'P1'
_symmetry_Int_Tables_number      '1'
_symmetry_cell_setting           'triclinic'
loop_
_symmetry_equiv_pos_as_xyz
x,y,z

loop_
_atom_site_label
_atom_site_type_symbol
_atom_site_occupancy
_atom_site_fract_x
_atom_site_fract_y
_atom_site_fract_z
_atom_site_U_iso_or_equiv
C1  C  1.0000  0.99862  0.20045  0.14136  0.0000
C2  C  1.0000  0.06517  0.13319  0.14057  0.0000
C3  C  1.0000  0.19694  0.19612  0.14106  0.0000
C4  C  1.0000  0.26272  0.12772  0.14124  0.0000
C5  C  1.0000  0.39395  0.19303  0.14239  0.0000
C6  C  1.0000  0.46422  0.12991  0.14302  0.0000
C7  C  1.0000  0.59701  0.20134  0.14365  0.0000
C8  C  1.0000  0.66608  0.13645  0.14346  0.0000
C9  C  1.0000  0.79886  0.20450  0.14301  0.0000
C10  C  1.0000  0.86685  0.13805  0.14193  0.0000
C11  C  1.0000  0.99614  0.40031  0.14352  0.0000
C12  C  1.0000  0.06246  0.33191  0.14249  0.0000
C13  C  1.0000  0.19463  0.39561  0.14300  0.0000
C14  C  1.0000  0.26218  0.32725  0.14244  0.0000
C15  C  1.0000  0.45511  0.32437  0.14341  0.0000
C16  C  1.0000  0.65703  0.33482  0.14415  0.0000
C17  C  1.0000  0.79313  0.40568  0.14428  0.0000
C18  C  1.0000  0.86194  0.33810  0.14361  0.0000
C19  C  1.0000  0.00075  0.60126  0.14411  0.0000
C20  C  1.0000  0.06681  0.53278  0.14413  0.0000
C21  C  1.0000  0.20191  0.59297  0.14429  0.0000
C22  C  1.0000  0.86542  0.54076  0.14435  0.0000
C23  C  1.0000  0.00514  0.80241  0.14237  0.0000
C24  C  1.0000  0.07119  0.73359  0.14333  0.0000
C25  C  1.0000  0.20535  0.79575  0.14333  0.0000
C26  C  1.0000  0.27408  0.72791  0.14421  0.0000
C27  C  1.0000  0.40991  0.79730  0.14433  0.0000
C28  C  1.0000  0.61181  0.80881  0.14411  0.0000
C29  C  1.0000  0.80603  0.80824  0.14298  0.0000
C30  C  1.0000  0.87327  0.73909  0.14322  0.0000
C31  C  1.0000  0.00289  0.00177  0.14062  0.0000
C32  C  1.0000  0.06888  0.93391  0.14106  0.0000
C33  C  1.0000  0.20051  0.99610  0.14127  0.0000
C34  C  1.0000  0.26835  0.92913  0.14249  0.0000
C35  C  1.0000  0.40092  0.99640  0.14308  0.0000
C36  C  1.0000  0.46976  0.93104  0.14381  0.0000
C37  C  1.0000  0.60284  0.00327  0.14359  0.0000
C38  C  1.0000  0.67304  0.94052  0.14326  0.0000
C39  C  1.0000  0.80437  0.00621  0.14207  0.0000
C40  C  1.0000  0.87118  0.93896  0.14161  0.0000
N1  N  1.0000  0.58281  0.39048  0.14444  0.0000
N2  N  1.0000  0.80786  0.61179  0.14435  0.0000
N3  N  1.0000  0.67735  0.74578  0.14425  0.0000
N4  N  1.0000  0.39150  0.39127  0.14363  0.0000
N5  N  1.0000  0.26099  0.52303  0.14417  0.0000
N6  N  1.0000  0.48323  0.73950  0.14481  0.0000
Fe1  Fe  1.0000  0.44238  0.56769  0.14505  0.0000
Rh1  Rh  1.0000  0.62344  0.56460  0.14503  0.0000
