data_CNFeRu
_audit_creation_method           'pos2cif.pl'
_cell_length_a               12.3170003891
_cell_length_b               12.3170003891315
_cell_length_c               20
_cell_angle_alpha            90
_cell_angle_beta             90
_cell_angle_gamma            120.010002136348
_symmetry_space_group_H-M        'P1'
_symmetry_Int_Tables_number      '1'
_symmetry_cell_setting           'triclinic'
loop_
_symmetry_equiv_pos_as_xyz
x,y,z

loop_
_atom_site_label
_atom_site_type_symbol
_atom_site_occupancy
_atom_site_fract_x
_atom_site_fract_y
_atom_site_fract_z
_atom_site_U_iso_or_equiv
C1  C  1.0000  0.00000  0.20136  0.14240  0.0000
C2  C  1.0000  0.06601  0.13364  0.14229  0.0000
C3  C  1.0000  0.19783  0.19653  0.14252  0.0000
C4  C  1.0000  0.26259  0.12734  0.14259  0.0000
C5  C  1.0000  0.39395  0.19227  0.14300  0.0000
C6  C  1.0000  0.46436  0.12929  0.14304  0.0000
C7  C  1.0000  0.59727  0.20054  0.14324  0.0000
C8  C  1.0000  0.66671  0.13628  0.14297  0.0000
C9  C  1.0000  0.79965  0.20479  0.14283  0.0000
C10  C  1.0000  0.86787  0.13863  0.14251  0.0000
C11  C  1.0000  0.99744  0.40090  0.14307  0.0000
C12  C  1.0000  0.06457  0.33308  0.14273  0.0000
C13  C  1.0000  0.19723  0.39667  0.14305  0.0000
C14  C  1.0000  0.26407  0.32822  0.14302  0.0000
C15  C  1.0000  0.45506  0.32306  0.14355  0.0000
C16  C  1.0000  0.65783  0.33348  0.14363  0.0000
C17  C  1.0000  0.79364  0.40557  0.14357  0.0000
C18  C  1.0000  0.86312  0.33847  0.14314  0.0000
C19  C  1.0000  -0.00035  0.60099  0.14342  0.0000
C20  C  1.0000  0.06768  0.53324  0.14333  0.0000
C21  C  1.0000  0.20365  0.59391  0.14345  0.0000
C22  C  1.0000  0.86348  0.54032  0.14364  0.0000
C23  C  1.0000  0.00356  0.80165  0.14299  0.0000
C24  C  1.0000  0.07021  0.73329  0.14317  0.0000
C25  C  1.0000  0.20453  0.79554  0.14309  0.0000
C26  C  1.0000  0.27395  0.72818  0.14342  0.0000
C27  C  1.0000  0.40965  0.79776  0.14351  0.0000
C28  C  1.0000  0.61201  0.80932  0.14347  0.0000
C29  C  1.0000  0.80513  0.80807  0.14323  0.0000
C30  C  1.0000  0.87131  0.73876  0.14336  0.0000
C31  C  1.0000  0.00282  0.00182  0.14240  0.0000
C32  C  1.0000  0.06810  0.93341  0.14256  0.0000
C33  C  1.0000  0.19997  0.99572  0.14254  0.0000
C34  C  1.0000  0.26790  0.92890  0.14282  0.0000
C35  C  1.0000  0.40069  0.99610  0.14293  0.0000
C36  C  1.0000  0.46987  0.93116  0.14313  0.0000
C37  C  1.0000  0.60303  0.00329  0.14297  0.0000
C38  C  1.0000  0.67329  0.94075  0.14292  0.0000
C39  C  1.0000  0.80487  0.00676  0.14261  0.0000
C40  C  1.0000  0.87099  0.93901  0.14268  0.0000
N1  N  1.0000  0.58363  0.38874  0.14395  0.0000
N2  N  1.0000  0.80318  0.61105  0.14378  0.0000
N3  N  1.0000  0.67589  0.74477  0.14366  0.0000
N4  N  1.0000  0.39329  0.39197  0.14371  0.0000
N5  N  1.0000  0.26537  0.52473  0.14355  0.0000
N6  N  1.0000  0.48285  0.73994  0.14394  0.0000
Fe1  Fe  1.0000  0.44458  0.57400  0.14439  0.0000
Ru1  Ru  1.0000  0.61267  0.55787  0.14422  0.0000
