data_CNFeSc
_audit_creation_method           'pos2cif.pl'
_cell_length_a               12.3170003891
_cell_length_b               12.3170003891315
_cell_length_c               20
_cell_angle_alpha            90
_cell_angle_beta             90
_cell_angle_gamma            120.010002136348
_symmetry_space_group_H-M        'P1'
_symmetry_Int_Tables_number      '1'
_symmetry_cell_setting           'triclinic'
loop_
_symmetry_equiv_pos_as_xyz
x,y,z

loop_
_atom_site_label
_atom_site_type_symbol
_atom_site_occupancy
_atom_site_fract_x
_atom_site_fract_y
_atom_site_fract_z
_atom_site_U_iso_or_equiv
C1  C  1.0000  0.00013  0.20038  0.14353  0.0000
C2  C  1.0000  0.06634  0.13326  0.14259  0.0000
C3  C  1.0000  0.19893  0.19806  0.14151  0.0000
C4  C  1.0000  0.26392  0.12908  0.13967  0.0000
C5  C  1.0000  0.39591  0.19546  0.13796  0.0000
C6  C  1.0000  0.46535  0.13137  0.13847  0.0000
C7  C  1.0000  0.59852  0.20142  0.13931  0.0000
C8  C  1.0000  0.66716  0.13618  0.14093  0.0000
C9  C  1.0000  0.79996  0.20351  0.14264  0.0000
C10  C  1.0000  0.86770  0.13673  0.14314  0.0000
C11  C  1.0000  0.99772  0.40000  0.14430  0.0000
C12  C  1.0000  0.06473  0.33213  0.14398  0.0000
C13  C  1.0000  0.19733  0.39671  0.14275  0.0000
C14  C  1.0000  0.26508  0.32981  0.14139  0.0000
C15  C  1.0000  0.45972  0.32756  0.13680  0.0000
C16  C  1.0000  0.65989  0.33440  0.14080  0.0000
C17  C  1.0000  0.79503  0.40465  0.14487  0.0000
C18  C  1.0000  0.86403  0.33704  0.14402  0.0000
C19  C  1.0000  0.00020  0.60060  0.14535  0.0000
C20  C  1.0000  0.06728  0.53280  0.14376  0.0000
C21  C  1.0000  0.20254  0.59400  0.14176  0.0000
C22  C  1.0000  0.86494  0.53914  0.14834  0.0000
C23  C  1.0000  0.00238  0.80089  0.14437  0.0000
C24  C  1.0000  0.06994  0.73346  0.14410  0.0000
C25  C  1.0000  0.20395  0.79647  0.14170  0.0000
C26  C  1.0000  0.27306  0.72886  0.14103  0.0000
C27  C  1.0000  0.40853  0.79929  0.14073  0.0000
C28  C  1.0000  0.60950  0.80866  0.14449  0.0000
C29  C  1.0000  0.80285  0.80432  0.14660  0.0000
C30  C  1.0000  0.86936  0.73577  0.14825  0.0000
C31  C  1.0000  0.00211  0.00075  0.14262  0.0000
C32  C  1.0000  0.06765  0.93292  0.14212  0.0000
C33  C  1.0000  0.20032  0.99703  0.14051  0.0000
C34  C  1.0000  0.26806  0.93025  0.14037  0.0000
C35  C  1.0000  0.40087  0.99800  0.13966  0.0000
C36  C  1.0000  0.46958  0.93257  0.14072  0.0000
C37  C  1.0000  0.60270  0.00323  0.14121  0.0000
C38  C  1.0000  0.67237  0.93982  0.14313  0.0000
C39  C  1.0000  0.80435  0.00497  0.14349  0.0000
C40  C  1.0000  0.86979  0.93635  0.14393  0.0000
N1  N  1.0000  0.58794  0.39269  0.13930  0.0000
N2  N  1.0000  0.80289  0.60671  0.15419  0.0000
N3  N  1.0000  0.67173  0.74156  0.14950  0.0000
N4  N  1.0000  0.39755  0.39697  0.13732  0.0000
N5  N  1.0000  0.26345  0.52520  0.14069  0.0000
N6  N  1.0000  0.48184  0.74189  0.14031  0.0000
Fe1  Fe  1.0000  0.44185  0.57357  0.12888  0.0000
Sc1  Sc  1.0000  0.60996  0.55465  0.18484  0.0000
