data_CNFeTa
_audit_creation_method           'pos2cif.pl'
_cell_length_a               12.3170003891
_cell_length_b               12.3170003891315
_cell_length_c               20
_cell_angle_alpha            90
_cell_angle_beta             90
_cell_angle_gamma            120.010002136348
_symmetry_space_group_H-M        'P1'
_symmetry_Int_Tables_number      '1'
_symmetry_cell_setting           'triclinic'
loop_
_symmetry_equiv_pos_as_xyz
x,y,z

loop_
_atom_site_label
_atom_site_type_symbol
_atom_site_occupancy
_atom_site_fract_x
_atom_site_fract_y
_atom_site_fract_z
_atom_site_U_iso_or_equiv
C1  C  1.0000  -0.00015  0.20080  0.14162  0.0000
C2  C  1.0000  0.06616  0.13341  0.13964  0.0000
C3  C  1.0000  0.19795  0.19660  0.13626  0.0000
C4  C  1.0000  0.26331  0.12773  0.13468  0.0000
C5  C  1.0000  0.39486  0.19325  0.13351  0.0000
C6  C  1.0000  0.46502  0.12993  0.13634  0.0000
C7  C  1.0000  0.59812  0.20199  0.13885  0.0000
C8  C  1.0000  0.66686  0.13672  0.14171  0.0000
C9  C  1.0000  0.79959  0.20456  0.14348  0.0000
C10  C  1.0000  0.86768  0.13774  0.14412  0.0000
C11  C  1.0000  0.99696  0.40048  0.14391  0.0000
C12  C  1.0000  0.06396  0.33248  0.14163  0.0000
C13  C  1.0000  0.19653  0.39671  0.13990  0.0000
C14  C  1.0000  0.26300  0.32767  0.13603  0.0000
C15  C  1.0000  0.45636  0.32466  0.13328  0.0000
C16  C  1.0000  0.65870  0.33542  0.14106  0.0000
C17  C  1.0000  0.79356  0.40564  0.14513  0.0000
C18  C  1.0000  0.86285  0.33790  0.14419  0.0000
C19  C  1.0000  -0.00045  0.60093  0.14605  0.0000
C20  C  1.0000  0.06663  0.53285  0.14419  0.0000
C21  C  1.0000  0.20241  0.59312  0.14266  0.0000
C22  C  1.0000  0.86371  0.54064  0.14859  0.0000
C23  C  1.0000  0.00432  0.80159  0.14512  0.0000
C24  C  1.0000  0.07096  0.73347  0.14427  0.0000
C25  C  1.0000  0.20533  0.79560  0.14130  0.0000
C26  C  1.0000  0.27460  0.72795  0.14148  0.0000
C27  C  1.0000  0.41059  0.79658  0.14109  0.0000
C28  C  1.0000  0.61149  0.80953  0.15085  0.0000
C29  C  1.0000  0.80823  0.80906  0.15373  0.0000
C30  C  1.0000  0.87198  0.73824  0.15091  0.0000
C31  C  1.0000  0.00361  0.00185  0.14212  0.0000
C32  C  1.0000  0.06880  0.93330  0.14128  0.0000
C33  C  1.0000  0.20076  0.99594  0.13758  0.0000
C34  C  1.0000  0.26870  0.92913  0.13850  0.0000
C35  C  1.0000  0.40159  0.99643  0.13811  0.0000
C36  C  1.0000  0.47055  0.93067  0.14086  0.0000
C37  C  1.0000  0.60324  0.00338  0.14292  0.0000
C38  C  1.0000  0.67306  0.94030  0.14813  0.0000
C39  C  1.0000  0.80526  0.00644  0.14758  0.0000
C40  C  1.0000  0.87228  0.93921  0.14764  0.0000
N1  N  1.0000  0.58497  0.39302  0.14028  0.0000
N2  N  1.0000  0.80254  0.60952  0.15370  0.0000
N3  N  1.0000  0.67902  0.74758  0.16118  0.0000
N4  N  1.0000  0.39317  0.39205  0.13206  0.0000
N5  N  1.0000  0.26289  0.52451  0.14163  0.0000
N6  N  1.0000  0.48471  0.73781  0.14179  0.0000
Fe1  Fe  1.0000  0.44361  0.56748  0.13472  0.0000
Ta1  Ta  1.0000  0.59714  0.55926  0.17626  0.0000
