data_CNFeTc
_audit_creation_method           'pos2cif.pl'
_cell_length_a               12.3170003891
_cell_length_b               12.3170003891315
_cell_length_c               20
_cell_angle_alpha            90
_cell_angle_beta             90
_cell_angle_gamma            120.010002136348
_symmetry_space_group_H-M        'P1'
_symmetry_Int_Tables_number      '1'
_symmetry_cell_setting           'triclinic'
loop_
_symmetry_equiv_pos_as_xyz
x,y,z

loop_
_atom_site_label
_atom_site_type_symbol
_atom_site_occupancy
_atom_site_fract_x
_atom_site_fract_y
_atom_site_fract_z
_atom_site_U_iso_or_equiv
C1  C  1.0000  0.00008  0.20156  0.14215  0.0000
C2  C  1.0000  0.06612  0.13391  0.14186  0.0000
C3  C  1.0000  0.19779  0.19650  0.14214  0.0000
C4  C  1.0000  0.26257  0.12720  0.14216  0.0000
C5  C  1.0000  0.39377  0.19178  0.14272  0.0000
C6  C  1.0000  0.46420  0.12874  0.14295  0.0000
C7  C  1.0000  0.59729  0.20076  0.14323  0.0000
C8  C  1.0000  0.66664  0.13647  0.14289  0.0000
C9  C  1.0000  0.79954  0.20496  0.14276  0.0000
C10  C  1.0000  0.86802  0.13893  0.14228  0.0000
C11  C  1.0000  0.99714  0.40088  0.14313  0.0000
C12  C  1.0000  0.06445  0.33320  0.14268  0.0000
C13  C  1.0000  0.19692  0.39698  0.14303  0.0000
C14  C  1.0000  0.26340  0.32789  0.14286  0.0000
C15  C  1.0000  0.45446  0.32249  0.14351  0.0000
C16  C  1.0000  0.65770  0.33362  0.14388  0.0000
C17  C  1.0000  0.79346  0.40575  0.14379  0.0000
C18  C  1.0000  0.86293  0.33848  0.14320  0.0000
C19  C  1.0000  -0.00091  0.60083  0.14349  0.0000
C20  C  1.0000  0.06705  0.53310  0.14343  0.0000
C21  C  1.0000  0.20289  0.59340  0.14356  0.0000
C22  C  1.0000  0.86343  0.54041  0.14388  0.0000
C23  C  1.0000  0.00376  0.80177  0.14272  0.0000
C24  C  1.0000  0.07032  0.73333  0.14308  0.0000
C25  C  1.0000  0.20454  0.79511  0.14304  0.0000
C26  C  1.0000  0.27399  0.72756  0.14347  0.0000
C27  C  1.0000  0.41010  0.79652  0.14355  0.0000
C28  C  1.0000  0.61292  0.81041  0.14375  0.0000
C29  C  1.0000  0.80660  0.80919  0.14331  0.0000
C30  C  1.0000  0.87159  0.73907  0.14334  0.0000
C31  C  1.0000  0.00331  0.00231  0.14188  0.0000
C32  C  1.0000  0.06830  0.93352  0.14211  0.0000
C33  C  1.0000  0.20005  0.99542  0.14217  0.0000
C34  C  1.0000  0.26797  0.92855  0.14267  0.0000
C35  C  1.0000  0.40084  0.99560  0.14289  0.0000
C36  C  1.0000  0.47010  0.93033  0.14316  0.0000
C37  C  1.0000  0.60307  0.00335  0.14290  0.0000
C38  C  1.0000  0.67364  0.94128  0.14288  0.0000
C39  C  1.0000  0.80540  0.00731  0.14239  0.0000
C40  C  1.0000  0.87184  0.94000  0.14234  0.0000
N1  N  1.0000  0.58353  0.38956  0.14461  0.0000
N2  N  1.0000  0.80243  0.61104  0.14416  0.0000
N3  N  1.0000  0.67787  0.74694  0.14442  0.0000
N4  N  1.0000  0.39248  0.39064  0.14361  0.0000
N5  N  1.0000  0.26448  0.52471  0.14363  0.0000
N6  N  1.0000  0.48394  0.73859  0.14399  0.0000
Fe1  Fe  1.0000  0.44808  0.57179  0.14433  0.0000
Tc1  Tc  1.0000  0.60693  0.55939  0.14594  0.0000
