data_CNFeTi
_audit_creation_method           'pos2cif.pl'
_cell_length_a               12.3170003891
_cell_length_b               12.3170003891315
_cell_length_c               20
_cell_angle_alpha            90
_cell_angle_beta             90
_cell_angle_gamma            120.010002136348
_symmetry_space_group_H-M        'P1'
_symmetry_Int_Tables_number      '1'
_symmetry_cell_setting           'triclinic'
loop_
_symmetry_equiv_pos_as_xyz
x,y,z

loop_
_atom_site_label
_atom_site_type_symbol
_atom_site_occupancy
_atom_site_fract_x
_atom_site_fract_y
_atom_site_fract_z
_atom_site_U_iso_or_equiv
C1  C  1.0000  0.00050  0.20101  0.14452  0.0000
C2  C  1.0000  0.06678  0.13381  0.14367  0.0000
C3  C  1.0000  0.19929  0.19829  0.14133  0.0000
C4  C  1.0000  0.26389  0.12882  0.13951  0.0000
C5  C  1.0000  0.39571  0.19432  0.13722  0.0000
C6  C  1.0000  0.46529  0.13059  0.13860  0.0000
C7  C  1.0000  0.59847  0.20119  0.13959  0.0000
C8  C  1.0000  0.66719  0.13614  0.14248  0.0000
C9  C  1.0000  0.80001  0.20393  0.14400  0.0000
C10  C  1.0000  0.86804  0.13736  0.14513  0.0000
C11  C  1.0000  0.99768  0.40037  0.14408  0.0000
C12  C  1.0000  0.06500  0.33274  0.14388  0.0000
C13  C  1.0000  0.19790  0.39762  0.14160  0.0000
C14  C  1.0000  0.26561  0.33006  0.13967  0.0000
C15  C  1.0000  0.45941  0.32605  0.13444  0.0000
C16  C  1.0000  0.65971  0.33430  0.13969  0.0000
C17  C  1.0000  0.79450  0.40487  0.14397  0.0000
C18  C  1.0000  0.86367  0.33743  0.14414  0.0000
C19  C  1.0000  -0.00065  0.60074  0.14485  0.0000
C20  C  1.0000  0.06665  0.53295  0.14311  0.0000
C21  C  1.0000  0.20226  0.59378  0.14105  0.0000
C22  C  1.0000  0.86356  0.53979  0.14725  0.0000
C23  C  1.0000  0.00259  0.80099  0.14491  0.0000
C24  C  1.0000  0.06988  0.73348  0.14395  0.0000
C25  C  1.0000  0.20417  0.79627  0.14186  0.0000
C26  C  1.0000  0.27341  0.72880  0.14106  0.0000
C27  C  1.0000  0.40904  0.79842  0.14150  0.0000
C28  C  1.0000  0.61020  0.80859  0.14767  0.0000
C29  C  1.0000  0.80405  0.80564  0.14925  0.0000
C30  C  1.0000  0.86951  0.73624  0.14871  0.0000
C31  C  1.0000  0.00274  0.00140  0.14427  0.0000
C32  C  1.0000  0.06787  0.93312  0.14322  0.0000
C33  C  1.0000  0.20035  0.99680  0.14105  0.0000
C34  C  1.0000  0.26810  0.92992  0.14082  0.0000
C35  C  1.0000  0.40099  0.99727  0.14035  0.0000
C36  C  1.0000  0.46983  0.93194  0.14210  0.0000
C37  C  1.0000  0.60292  0.00302  0.14357  0.0000
C38  C  1.0000  0.67283  0.93993  0.14671  0.0000
C39  C  1.0000  0.80482  0.00562  0.14669  0.0000
C40  C  1.0000  0.87049  0.93725  0.14652  0.0000
N1  N  1.0000  0.58750  0.39217  0.13629  0.0000
N2  N  1.0000  0.80121  0.60736  0.15196  0.0000
N3  N  1.0000  0.67354  0.74241  0.15313  0.0000
N4  N  1.0000  0.39742  0.39521  0.13309  0.0000
N5  N  1.0000  0.26311  0.52569  0.13973  0.0000
N6  N  1.0000  0.48290  0.74133  0.14138  0.0000
Fe1  Fe  1.0000  0.44578  0.57250  0.12764  0.0000
Ti1  Ti  1.0000  0.60130  0.55361  0.17072  0.0000
