data_CNFeV
_audit_creation_method           'pos2cif.pl'
_cell_length_a               12.3170003891
_cell_length_b               12.3170003891315
_cell_length_c               20
_cell_angle_alpha            90
_cell_angle_beta             90
_cell_angle_gamma            120.010002136348
_symmetry_space_group_H-M        'P1'
_symmetry_Int_Tables_number      '1'
_symmetry_cell_setting           'triclinic'
loop_
_symmetry_equiv_pos_as_xyz
x,y,z

loop_
_atom_site_label
_atom_site_type_symbol
_atom_site_occupancy
_atom_site_fract_x
_atom_site_fract_y
_atom_site_fract_z
_atom_site_U_iso_or_equiv
C1  C  1.0000  0.00075  0.20091  0.14390  0.0000
C2  C  1.0000  0.06681  0.13362  0.14323  0.0000
C3  C  1.0000  0.19942  0.19805  0.14288  0.0000
C4  C  1.0000  0.26373  0.12862  0.14184  0.0000
C5  C  1.0000  0.39551  0.19441  0.14117  0.0000
C6  C  1.0000  0.46514  0.13060  0.14157  0.0000
C7  C  1.0000  0.59838  0.20026  0.14190  0.0000
C8  C  1.0000  0.66746  0.13593  0.14235  0.0000
C9  C  1.0000  0.80041  0.20392  0.14336  0.0000
C10  C  1.0000  0.86829  0.13735  0.14322  0.0000
C11  C  1.0000  0.99841  0.40047  0.14459  0.0000
C12  C  1.0000  0.06568  0.33280  0.14451  0.0000
C13  C  1.0000  0.19840  0.39700  0.14382  0.0000
C14  C  1.0000  0.26657  0.33034  0.14276  0.0000
C15  C  1.0000  0.45875  0.32595  0.14062  0.0000
C16  C  1.0000  0.66001  0.33276  0.14312  0.0000
C17  C  1.0000  0.79496  0.40438  0.14493  0.0000
C18  C  1.0000  0.86437  0.33735  0.14443  0.0000
C19  C  1.0000  -0.00058  0.60043  0.14451  0.0000
C20  C  1.0000  0.06752  0.53303  0.14403  0.0000
C21  C  1.0000  0.20345  0.59456  0.14288  0.0000
C22  C  1.0000  0.86356  0.53903  0.14610  0.0000
C23  C  1.0000  0.00180  0.80060  0.14294  0.0000
C24  C  1.0000  0.06934  0.73317  0.14343  0.0000
C25  C  1.0000  0.20348  0.79615  0.14257  0.0000
C26  C  1.0000  0.27306  0.72906  0.14227  0.0000
C27  C  1.0000  0.40846  0.79980  0.14198  0.0000
C28  C  1.0000  0.61016  0.80911  0.14290  0.0000
C29  C  1.0000  0.80245  0.80478  0.14308  0.0000
C30  C  1.0000  0.86876  0.73618  0.14437  0.0000
C31  C  1.0000  0.00218  0.00096  0.14244  0.0000
C32  C  1.0000  0.06735  0.93280  0.14223  0.0000
C33  C  1.0000  0.19987  0.99642  0.14204  0.0000
C34  C  1.0000  0.26762  0.92978  0.14212  0.0000
C35  C  1.0000  0.40070  0.99762  0.14202  0.0000
C36  C  1.0000  0.46990  0.93295  0.14221  0.0000
C37  C  1.0000  0.60290  0.00318  0.14206  0.0000
C38  C  1.0000  0.67266  0.93991  0.14222  0.0000
C39  C  1.0000  0.80471  0.00558  0.14242  0.0000
C40  C  1.0000  0.86980  0.93691  0.14219  0.0000
N1  N  1.0000  0.58765  0.38973  0.14337  0.0000
N2  N  1.0000  0.80059  0.60711  0.14800  0.0000
N3  N  1.0000  0.67166  0.74132  0.14477  0.0000
N4  N  1.0000  0.39815  0.39632  0.14014  0.0000
N5  N  1.0000  0.26487  0.52550  0.14276  0.0000
N6  N  1.0000  0.48123  0.74255  0.14101  0.0000
Fe1  Fe  1.0000  0.44095  0.57860  0.13724  0.0000
V1  V  1.0000  0.60976  0.55329  0.15743  0.0000
