data_CNFeW
_audit_creation_method           'pos2cif.pl'
_cell_length_a               12.3170003891
_cell_length_b               12.3170003891315
_cell_length_c               20
_cell_angle_alpha            90
_cell_angle_beta             90
_cell_angle_gamma            120.010002136348
_symmetry_space_group_H-M        'P1'
_symmetry_Int_Tables_number      '1'
_symmetry_cell_setting           'triclinic'
loop_
_symmetry_equiv_pos_as_xyz
x,y,z

loop_
_atom_site_label
_atom_site_type_symbol
_atom_site_occupancy
_atom_site_fract_x
_atom_site_fract_y
_atom_site_fract_z
_atom_site_U_iso_or_equiv
C1  C  1.0000  -0.00014  0.20120  0.13943  0.0000
C2  C  1.0000  0.06582  0.13358  0.13672  0.0000
C3  C  1.0000  0.19750  0.19641  0.13434  0.0000
C4  C  1.0000  0.26295  0.12754  0.13328  0.0000
C5  C  1.0000  0.39438  0.19262  0.13444  0.0000
C6  C  1.0000  0.46451  0.12922  0.13760  0.0000
C7  C  1.0000  0.59776  0.20172  0.14056  0.0000
C8  C  1.0000  0.66674  0.13654  0.14167  0.0000
C9  C  1.0000  0.79936  0.20472  0.14291  0.0000
C10  C  1.0000  0.86778  0.13825  0.14209  0.0000
C11  C  1.0000  0.99679  0.40068  0.14406  0.0000
C12  C  1.0000  0.06404  0.33280  0.14083  0.0000
C13  C  1.0000  0.19632  0.39659  0.13980  0.0000
C14  C  1.0000  0.26223  0.32734  0.13584  0.0000
C15  C  1.0000  0.45494  0.32362  0.13708  0.0000
C16  C  1.0000  0.65808  0.33433  0.14479  0.0000
C17  C  1.0000  0.79319  0.40571  0.14726  0.0000
C18  C  1.0000  0.86271  0.33813  0.14470  0.0000
C19  C  1.0000  -0.00136  0.60080  0.14670  0.0000
C20  C  1.0000  0.06639  0.53286  0.14505  0.0000
C21  C  1.0000  0.20246  0.59324  0.14379  0.0000
C22  C  1.0000  0.86320  0.54040  0.14964  0.0000
C23  C  1.0000  0.00413  0.80181  0.14352  0.0000
C24  C  1.0000  0.07071  0.73355  0.14392  0.0000
C25  C  1.0000  0.20472  0.79529  0.14136  0.0000
C26  C  1.0000  0.27428  0.72751  0.14271  0.0000
C27  C  1.0000  0.41036  0.79616  0.14286  0.0000
C28  C  1.0000  0.61245  0.81003  0.15032  0.0000
C29  C  1.0000  0.80909  0.81028  0.15147  0.0000
C30  C  1.0000  0.87224  0.73968  0.14938  0.0000
C31  C  1.0000  0.00349  0.00213  0.13895  0.0000
C32  C  1.0000  0.06854  0.93339  0.13871  0.0000
C33  C  1.0000  0.20044  0.99565  0.13574  0.0000
C34  C  1.0000  0.26834  0.92882  0.13799  0.0000
C35  C  1.0000  0.40130  0.99604  0.13847  0.0000
C36  C  1.0000  0.47046  0.93024  0.14142  0.0000
C37  C  1.0000  0.60311  0.00307  0.14233  0.0000
C38  C  1.0000  0.67354  0.94050  0.14598  0.0000
C39  C  1.0000  0.80562  0.00708  0.14477  0.0000
C40  C  1.0000  0.87247  0.94004  0.14471  0.0000
N1  N  1.0000  0.58322  0.39131  0.14825  0.0000
N2  N  1.0000  0.80133  0.61074  0.15360  0.0000
N3  N  1.0000  0.67988  0.74771  0.15972  0.0000
N4  N  1.0000  0.39227  0.39048  0.13484  0.0000
N5  N  1.0000  0.26349  0.52463  0.14238  0.0000
N6  N  1.0000  0.48474  0.73786  0.14514  0.0000
Fe1  Fe  1.0000  0.44629  0.56694  0.13951  0.0000
W1  W  1.0000  0.60485  0.56192  0.17129  0.0000
