data_CNFeY
_audit_creation_method           'pos2cif.pl'
_cell_length_a               12.3170003891
_cell_length_b               12.3170003891315
_cell_length_c               20
_cell_angle_alpha            90
_cell_angle_beta             90
_cell_angle_gamma            120.010002136348
_symmetry_space_group_H-M        'P1'
_symmetry_Int_Tables_number      '1'
_symmetry_cell_setting           'triclinic'
loop_
_symmetry_equiv_pos_as_xyz
x,y,z

loop_
_atom_site_label
_atom_site_type_symbol
_atom_site_occupancy
_atom_site_fract_x
_atom_site_fract_y
_atom_site_fract_z
_atom_site_U_iso_or_equiv
C1  C  1.0000  0.00092  0.20036  0.14163  0.0000
C2  C  1.0000  0.06598  0.13226  0.14071  0.0000
C3  C  1.0000  0.19919  0.19787  0.14027  0.0000
C4  C  1.0000  0.26400  0.12896  0.13867  0.0000
C5  C  1.0000  0.39594  0.19606  0.13759  0.0000
C6  C  1.0000  0.46558  0.13231  0.13830  0.0000
C7  C  1.0000  0.59897  0.20201  0.13919  0.0000
C8  C  1.0000  0.66763  0.13690  0.13963  0.0000
C9  C  1.0000  0.80070  0.20364  0.14137  0.0000
C10  C  1.0000  0.86808  0.13619  0.14069  0.0000
C11  C  1.0000  -0.00045  0.40025  0.14450  0.0000
C12  C  1.0000  0.06683  0.33279  0.14311  0.0000
C13  C  1.0000  0.20001  0.39736  0.14272  0.0000
C14  C  1.0000  0.26665  0.33008  0.14106  0.0000
C15  C  1.0000  0.46034  0.32865  0.13756  0.0000
C16  C  1.0000  0.66071  0.33495  0.14214  0.0000
C17  C  1.0000  0.79601  0.40426  0.14649  0.0000
C18  C  1.0000  0.86527  0.33692  0.14430  0.0000
C19  C  1.0000  0.00208  0.60030  0.14618  0.0000
C20  C  1.0000  0.07005  0.53291  0.14467  0.0000
C21  C  1.0000  0.20617  0.59494  0.14360  0.0000
C22  C  1.0000  0.86657  0.53868  0.15000  0.0000
C23  C  1.0000  0.00135  0.79982  0.14347  0.0000
C24  C  1.0000  0.06973  0.73308  0.14452  0.0000
C25  C  1.0000  0.20369  0.79661  0.14240  0.0000
C26  C  1.0000  0.27315  0.72964  0.14258  0.0000
C27  C  1.0000  0.40762  0.80120  0.14141  0.0000
C28  C  1.0000  0.60703  0.80911  0.14144  0.0000
C29  C  1.0000  0.79843  0.79982  0.14251  0.0000
C30  C  1.0000  0.86735  0.73338  0.14712  0.0000
C31  C  1.0000  0.00034  -0.00103  0.14037  0.0000
C32  C  1.0000  0.06664  0.93179  0.14069  0.0000
C33  C  1.0000  0.19971  0.99660  0.13970  0.0000
C34  C  1.0000  0.26773  0.93042  0.14033  0.0000
C35  C  1.0000  0.40080  0.99908  0.13943  0.0000
C36  C  1.0000  0.46966  0.93426  0.14007  0.0000
C37  C  1.0000  0.60249  0.00411  0.13920  0.0000
C38  C  1.0000  0.67133  0.93961  0.13950  0.0000
C39  C  1.0000  0.80367  0.00408  0.13970  0.0000
C40  C  1.0000  0.86716  0.93337  0.14026  0.0000
N1  N  1.0000  0.58861  0.39312  0.14205  0.0000
N2  N  1.0000  0.80401  0.60538  0.15625  0.0000
N3  N  1.0000  0.66484  0.73678  0.14546  0.0000
N4  N  1.0000  0.39920  0.39914  0.13820  0.0000
N5  N  1.0000  0.26934  0.52648  0.14322  0.0000
N6  N  1.0000  0.47908  0.74289  0.14125  0.0000
Fe1  Fe  1.0000  0.44385  0.58233  0.13542  0.0000
Y1  Y  1.0000  0.60301  0.55144  0.20098  0.0000
