data_CNFeZn
_audit_creation_method           'pos2cif.pl'
_cell_length_a               12.3170003891
_cell_length_b               12.3170003891315
_cell_length_c               20
_cell_angle_alpha            90
_cell_angle_beta             90
_cell_angle_gamma            120.010002136348
_symmetry_space_group_H-M        'P1'
_symmetry_Int_Tables_number      '1'
_symmetry_cell_setting           'triclinic'
loop_
_symmetry_equiv_pos_as_xyz
x,y,z

loop_
_atom_site_label
_atom_site_type_symbol
_atom_site_occupancy
_atom_site_fract_x
_atom_site_fract_y
_atom_site_fract_z
_atom_site_U_iso_or_equiv
C1  C  1.0000  0.99866  0.19986  0.14194  0.0000
C2  C  1.0000  0.06510  0.13296  0.14156  0.0000
C3  C  1.0000  0.19729  0.19709  0.14182  0.0000
C4  C  1.0000  0.26314  0.12874  0.14191  0.0000
C5  C  1.0000  0.39460  0.19434  0.14250  0.0000
C6  C  1.0000  0.46459  0.13098  0.14291  0.0000
C7  C  1.0000  0.59759  0.20127  0.14335  0.0000
C8  C  1.0000  0.66635  0.13609  0.14318  0.0000
C9  C  1.0000  0.79894  0.20350  0.14292  0.0000
C10  C  1.0000  0.86655  0.13660  0.14226  0.0000
C11  C  1.0000  0.99639  0.39980  0.14307  0.0000
C12  C  1.0000  0.06286  0.33156  0.14245  0.0000
C13  C  1.0000  0.19494  0.39576  0.14268  0.0000
C14  C  1.0000  0.26295  0.32837  0.14256  0.0000
C15  C  1.0000  0.45693  0.32597  0.14332  0.0000
C16  C  1.0000  0.65826  0.33449  0.14385  0.0000
C17  C  1.0000  0.79396  0.40504  0.14390  0.0000
C18  C  1.0000  0.86264  0.33713  0.14330  0.0000
C19  C  1.0000  0.00124  0.60113  0.14348  0.0000
C20  C  1.0000  0.06678  0.53263  0.14337  0.0000
C21  C  1.0000  0.20157  0.59355  0.14353  0.0000
C22  C  1.0000  0.86651  0.54002  0.14398  0.0000
C23  C  1.0000  0.00484  0.80266  0.14245  0.0000
C24  C  1.0000  0.07092  0.73393  0.14305  0.0000
C25  C  1.0000  0.20470  0.79663  0.14313  0.0000
C26  C  1.0000  0.27319  0.72880  0.14374  0.0000
C27  C  1.0000  0.40867  0.79905  0.14409  0.0000
C28  C  1.0000  0.60900  0.80774  0.14388  0.0000
C29  C  1.0000  0.80409  0.80547  0.14280  0.0000
C30  C  1.0000  0.87273  0.73831  0.14306  0.0000
C31  C  1.0000  0.00202  0.00093  0.14155  0.0000
C32  C  1.0000  0.06856  0.93395  0.14177  0.0000
C33  C  1.0000  0.20059  0.99720  0.14195  0.0000
C34  C  1.0000  0.26823  0.93033  0.14265  0.0000
C35  C  1.0000  0.40071  0.99768  0.14299  0.0000
C36  C  1.0000  0.46932  0.93227  0.14354  0.0000
C37  C  1.0000  0.60236  0.00289  0.14327  0.0000
C38  C  1.0000  0.67193  0.93940  0.14300  0.0000
C39  C  1.0000  0.80372  0.00489  0.14226  0.0000
C40  C  1.0000  0.87002  0.93710  0.14199  0.0000
N1  N  1.0000  0.58380  0.38997  0.14422  0.0000
N2  N  1.0000  0.80881  0.61048  0.14435  0.0000
N3  N  1.0000  0.67377  0.74274  0.14382  0.0000
N4  N  1.0000  0.39402  0.39325  0.14357  0.0000
N5  N  1.0000  0.26054  0.52414  0.14342  0.0000
N6  N  1.0000  0.48174  0.74166  0.14486  0.0000
Fe1  Fe  1.0000  0.43744  0.56806  0.14560  0.0000
Zn1  Zn  1.0000  0.63345  0.56475  0.14712  0.0000
