data_CNFeZr
_audit_creation_method           'pos2cif.pl'
_cell_length_a               12.3170003891
_cell_length_b               12.3170003891315
_cell_length_c               20
_cell_angle_alpha            90
_cell_angle_beta             90
_cell_angle_gamma            120.010002136348
_symmetry_space_group_H-M        'P1'
_symmetry_Int_Tables_number      '1'
_symmetry_cell_setting           'triclinic'
loop_
_symmetry_equiv_pos_as_xyz
x,y,z

loop_
_atom_site_label
_atom_site_type_symbol
_atom_site_occupancy
_atom_site_fract_x
_atom_site_fract_y
_atom_site_fract_z
_atom_site_U_iso_or_equiv
C1  C  1.0000  0.00051  0.20081  0.14311  0.0000
C2  C  1.0000  0.06681  0.13369  0.14197  0.0000
C3  C  1.0000  0.19931  0.19828  0.13991  0.0000
C4  C  1.0000  0.26395  0.12885  0.13787  0.0000
C5  C  1.0000  0.39582  0.19454  0.13550  0.0000
C6  C  1.0000  0.46550  0.13080  0.13704  0.0000
C7  C  1.0000  0.59869  0.20115  0.13831  0.0000
C8  C  1.0000  0.66733  0.13609  0.14120  0.0000
C9  C  1.0000  0.80013  0.20377  0.14291  0.0000
C10  C  1.0000  0.86808  0.13714  0.14370  0.0000
C11  C  1.0000  0.99779  0.40031  0.14391  0.0000
C12  C  1.0000  0.06494  0.33255  0.14316  0.0000
C13  C  1.0000  0.19765  0.39726  0.14123  0.0000
C14  C  1.0000  0.26520  0.32991  0.13932  0.0000
C15  C  1.0000  0.45945  0.32617  0.13325  0.0000
C16  C  1.0000  0.66024  0.33410  0.13916  0.0000
C17  C  1.0000  0.79492  0.40485  0.14439  0.0000
C18  C  1.0000  0.86397  0.33719  0.14379  0.0000
C19  C  1.0000  -0.00036  0.60071  0.14565  0.0000
C20  C  1.0000  0.06681  0.53293  0.14344  0.0000
C21  C  1.0000  0.20227  0.59393  0.14124  0.0000
C22  C  1.0000  0.86420  0.53943  0.14882  0.0000
C23  C  1.0000  0.00267  0.80100  0.14495  0.0000
C24  C  1.0000  0.07004  0.73355  0.14439  0.0000
C25  C  1.0000  0.20415  0.79640  0.14181  0.0000
C26  C  1.0000  0.27335  0.72889  0.14136  0.0000
C27  C  1.0000  0.40883  0.79880  0.14181  0.0000
C28  C  1.0000  0.61009  0.80911  0.14801  0.0000
C29  C  1.0000  0.80449  0.80581  0.14962  0.0000
C30  C  1.0000  0.86974  0.73638  0.14991  0.0000
C31  C  1.0000  0.00277  0.00134  0.14279  0.0000
C32  C  1.0000  0.06786  0.93301  0.14211  0.0000
C33  C  1.0000  0.20041  0.99690  0.13967  0.0000
C34  C  1.0000  0.26821  0.93007  0.13993  0.0000
C35  C  1.0000  0.40112  0.99756  0.13929  0.0000
C36  C  1.0000  0.46994  0.93224  0.14155  0.0000
C37  C  1.0000  0.60296  0.00315  0.14245  0.0000
C38  C  1.0000  0.67281  0.93999  0.14573  0.0000
C39  C  1.0000  0.80491  0.00554  0.14533  0.0000
C40  C  1.0000  0.87069  0.93736  0.14550  0.0000
N1  N  1.0000  0.58784  0.39198  0.13588  0.0000
N2  N  1.0000  0.80191  0.60726  0.15543  0.0000
N3  N  1.0000  0.67389  0.74325  0.15475  0.0000
N4  N  1.0000  0.39782  0.39616  0.13365  0.0000
N5  N  1.0000  0.26291  0.52556  0.13956  0.0000
N6  N  1.0000  0.48262  0.74162  0.14210  0.0000
Fe1  Fe  1.0000  0.44267  0.57344  0.13003  0.0000
Zr1  Zr  1.0000  0.59911  0.55030  0.18544  0.0000
