data_CNHf
_audit_creation_method           'pos2cif.pl'
_cell_length_a               12.3170003891
_cell_length_b               12.3170003891315
_cell_length_c               20
_cell_angle_alpha            90
_cell_angle_beta             90
_cell_angle_gamma            120.010002136348
_symmetry_space_group_H-M        'P1'
_symmetry_Int_Tables_number      '1'
_symmetry_cell_setting           'triclinic'
loop_
_symmetry_equiv_pos_as_xyz
x,y,z

loop_
_atom_site_label
_atom_site_type_symbol
_atom_site_occupancy
_atom_site_fract_x
_atom_site_fract_y
_atom_site_fract_z
_atom_site_U_iso_or_equiv
C1  C  1.0000  -0.00095  0.19979  0.14073  0.0000
C2  C  1.0000  0.06597  0.13317  0.14212  0.0000
C3  C  1.0000  0.19845  0.19804  0.14256  0.0000
C4  C  1.0000  0.26503  0.13166  0.14120  0.0000
C5  C  1.0000  0.39829  0.19875  0.14090  0.0000
C6  C  1.0000  0.46599  0.13219  0.14207  0.0000
C7  C  1.0000  0.59876  0.20154  0.14305  0.0000
C8  C  1.0000  0.66627  0.13469  0.14148  0.0000
C9  C  1.0000  0.79944  0.20216  0.14010  0.0000
C10  C  1.0000  0.86636  0.13476  0.14085  0.0000
C11  C  1.0000  -0.00251  0.39936  0.13456  0.0000
C12  C  1.0000  0.06373  0.33182  0.13727  0.0000
C13  C  1.0000  0.19753  0.39771  0.13627  0.0000
C14  C  1.0000  0.26564  0.33110  0.14157  0.0000
C15  C  1.0000  0.46212  0.32958  0.14609  0.0000
C16  C  1.0000  0.66129  0.33518  0.14575  0.0000
C17  C  1.0000  0.79534  0.40353  0.13916  0.0000
C18  C  1.0000  0.86373  0.33527  0.13760  0.0000
C19  C  1.0000  0.00045  0.60077  0.13246  0.0000
C20  C  1.0000  0.06684  0.53307  0.13231  0.0000
C21  C  1.0000  0.20000  0.59624  0.13331  0.0000
C22  C  1.0000  0.86731  0.53763  0.13362  0.0000
C23  C  1.0000  0.00366  0.80205  0.13768  0.0000
C24  C  1.0000  0.06986  0.73447  0.13478  0.0000
C25  C  1.0000  0.20364  0.79856  0.13767  0.0000
C26  C  1.0000  0.27202  0.73030  0.13913  0.0000
C27  C  1.0000  0.40605  0.79860  0.14595  0.0000
C28  C  1.0000  0.60530  0.80424  0.14706  0.0000
C29  C  1.0000  0.80183  0.80276  0.14268  0.0000
C30  C  1.0000  0.86988  0.73619  0.13705  0.0000
C31  C  1.0000  0.00147  0.00070  0.14233  0.0000
C32  C  1.0000  0.06840  0.93410  0.14091  0.0000
C33  C  1.0000  0.20108  -0.00090  0.14070  0.0000
C34  C  1.0000  0.26798  0.93167  0.14003  0.0000
C35  C  1.0000  0.40113  -0.00091  0.14138  0.0000
C36  C  1.0000  0.46862  0.93224  0.14322  0.0000
C37  C  1.0000  0.60141  0.00159  0.14236  0.0000
C38  C  1.0000  0.66913  0.93503  0.14158  0.0000
C39  C  1.0000  0.80241  0.00219  0.14177  0.0000
C40  C  1.0000  0.86899  0.93581  0.14324  0.0000
N1  N  1.0000  0.59008  0.39578  0.15563  0.0000
N2  N  1.0000  0.80511  0.60567  0.13393  0.0000
N3  N  1.0000  0.66977  0.73765  0.14914  0.0000
N4  N  1.0000  0.39773  0.39620  0.14753  0.0000
N5  N  1.0000  0.26224  0.52826  0.13316  0.0000
N6  N  1.0000  0.47720  0.73798  0.15608  0.0000
Hf1  Hf  1.0000  0.40573  0.55166  0.19555  0.0000
Hf2  Hf  1.0000  0.66124  0.58120  0.19637  0.0000
