data_CNHfHg
_audit_creation_method           'pos2cif.pl'
_cell_length_a               12.3170003891
_cell_length_b               12.3170003891315
_cell_length_c               20
_cell_angle_alpha            90
_cell_angle_beta             90
_cell_angle_gamma            120.010002136348
_symmetry_space_group_H-M        'P1'
_symmetry_Int_Tables_number      '1'
_symmetry_cell_setting           'triclinic'
loop_
_symmetry_equiv_pos_as_xyz
x,y,z

loop_
_atom_site_label
_atom_site_type_symbol
_atom_site_occupancy
_atom_site_fract_x
_atom_site_fract_y
_atom_site_fract_z
_atom_site_U_iso_or_equiv
C1  C  1.0000  -0.00028  0.20072  0.13905  0.0000
C2  C  1.0000  0.06336  0.13102  0.13851  0.0000
C3  C  1.0000  0.19603  0.19570  0.13765  0.0000
C4  C  1.0000  0.26239  0.12795  0.13714  0.0000
C5  C  1.0000  0.39475  0.19417  0.13665  0.0000
C6  C  1.0000  0.46452  0.13175  0.13744  0.0000
C7  C  1.0000  0.59772  0.20344  0.13819  0.0000
C8  C  1.0000  0.66662  0.13853  0.13836  0.0000
C9  C  1.0000  0.79964  0.20445  0.13924  0.0000
C10  C  1.0000  0.86720  0.13734  0.13889  0.0000
C11  C  1.0000  -0.00118  0.40074  0.14168  0.0000
C12  C  1.0000  0.06583  0.33320  0.14043  0.0000
C13  C  1.0000  0.19937  0.39784  0.14144  0.0000
C14  C  1.0000  0.26301  0.32733  0.13834  0.0000
C15  C  1.0000  0.46119  0.32634  0.13697  0.0000
C16  C  1.0000  0.65801  0.33728  0.13951  0.0000
C17  C  1.0000  0.79478  0.40521  0.14148  0.0000
C18  C  1.0000  0.86383  0.33814  0.14083  0.0000
C19  C  1.0000  0.00282  0.60107  0.14246  0.0000
C20  C  1.0000  0.07052  0.53356  0.14265  0.0000
C21  C  1.0000  0.20623  0.59492  0.14369  0.0000
C22  C  1.0000  0.86702  0.54046  0.14301  0.0000
C23  C  1.0000  0.00016  0.79948  0.14108  0.0000
C24  C  1.0000  0.06907  0.73319  0.14185  0.0000
C25  C  1.0000  0.20327  0.79694  0.14108  0.0000
C26  C  1.0000  0.27278  0.73007  0.14193  0.0000
C27  C  1.0000  0.40681  0.80218  0.13981  0.0000
C28  C  1.0000  0.60790  0.81260  0.13935  0.0000
C29  C  1.0000  0.79625  0.79902  0.14083  0.0000
C30  C  1.0000  0.86538  0.73062  0.14232  0.0000
C31  C  1.0000  -0.00178  -0.00201  0.13902  0.0000
C32  C  1.0000  0.06510  0.93132  0.13942  0.0000
C33  C  1.0000  0.19813  -0.00390  0.13842  0.0000
C34  C  1.0000  0.26668  0.93014  0.13913  0.0000
C35  C  1.0000  0.39951  -0.00142  0.13824  0.0000
C36  C  1.0000  0.46853  0.93471  0.13850  0.0000
C37  C  1.0000  0.60191  0.00588  0.13813  0.0000
C38  C  1.0000  0.67157  0.94301  0.13869  0.0000
C39  C  1.0000  0.80301  0.00504  0.13879  0.0000
C40  C  1.0000  0.86503  0.93229  0.13943  0.0000
N1  N  1.0000  0.58615  0.39509  0.13894  0.0000
N2  N  1.0000  0.80447  0.60481  0.14449  0.0000
N3  N  1.0000  0.66486  0.74001  0.14042  0.0000
N4  N  1.0000  0.39385  0.39042  0.13762  0.0000
N5  N  1.0000  0.27026  0.52756  0.14569  0.0000
N6  N  1.0000  0.47917  0.74526  0.13951  0.0000
Hf1  Hf  1.0000  0.48205  0.58038  0.15804  0.0000
Hg1  Hg  1.0000  0.61355  0.54727  0.27763  0.0000
