data_CNHfIr
_audit_creation_method           'pos2cif.pl'
_cell_length_a               12.3170003891
_cell_length_b               12.3170003891315
_cell_length_c               20
_cell_angle_alpha            90
_cell_angle_beta             90
_cell_angle_gamma            120.010002136348
_symmetry_space_group_H-M        'P1'
_symmetry_Int_Tables_number      '1'
_symmetry_cell_setting           'triclinic'
loop_
_symmetry_equiv_pos_as_xyz
x,y,z

loop_
_atom_site_label
_atom_site_type_symbol
_atom_site_occupancy
_atom_site_fract_x
_atom_site_fract_y
_atom_site_fract_z
_atom_site_U_iso_or_equiv
C1  C  1.0000  -0.00102  0.20094  0.13821  0.0000
C2  C  1.0000  0.06478  0.13279  0.13752  0.0000
C3  C  1.0000  0.19439  0.19359  0.14974  0.0000
C4  C  1.0000  0.26115  0.12596  0.15008  0.0000
C5  C  1.0000  0.39271  0.19055  0.15609  0.0000
C6  C  1.0000  0.46407  0.12942  0.14852  0.0000
C7  C  1.0000  0.59684  0.20205  0.14652  0.0000
C8  C  1.0000  0.66612  0.13740  0.13932  0.0000
C9  C  1.0000  0.79894  0.20499  0.13787  0.0000
C10  C  1.0000  0.86717  0.13872  0.13272  0.0000
C11  C  1.0000  -0.00354  0.40040  0.14552  0.0000
C12  C  1.0000  0.06296  0.33188  0.14676  0.0000
C13  C  1.0000  0.19439  0.39436  0.15685  0.0000
C14  C  1.0000  0.25782  0.32246  0.16245  0.0000
C15  C  1.0000  0.45274  0.32007  0.16388  0.0000
C16  C  1.0000  0.65632  0.33589  0.14844  0.0000
C17  C  1.0000  0.79268  0.40612  0.14392  0.0000
C18  C  1.0000  0.86215  0.33844  0.14247  0.0000
C19  C  1.0000  0.00213  0.60145  0.14117  0.0000
C20  C  1.0000  0.06810  0.53317  0.14669  0.0000
C21  C  1.0000  0.20324  0.59338  0.15127  0.0000
C22  C  1.0000  0.86673  0.54124  0.13976  0.0000
C23  C  1.0000  0.00563  0.80249  0.13094  0.0000
C24  C  1.0000  0.07168  0.73377  0.13790  0.0000
C25  C  1.0000  0.20542  0.79598  0.14159  0.0000
C26  C  1.0000  0.27453  0.72828  0.14620  0.0000
C27  C  1.0000  0.40994  0.79874  0.14293  0.0000
C28  C  1.0000  0.61108  0.80961  0.12949  0.0000
C29  C  1.0000  0.80688  0.80879  0.12293  0.0000
C30  C  1.0000  0.87375  0.73902  0.12776  0.0000
C31  C  1.0000  0.00314  0.00210  0.12929  0.0000
C32  C  1.0000  0.06914  0.93411  0.13217  0.0000
C33  C  1.0000  0.20008  0.99586  0.14085  0.0000
C34  C  1.0000  0.26829  0.92910  0.14205  0.0000
C35  C  1.0000  0.40089  -0.00337  0.14364  0.0000
C36  C  1.0000  0.46995  0.93202  0.13983  0.0000
C37  C  1.0000  0.60293  0.00423  0.13557  0.0000
C38  C  1.0000  0.67276  0.94142  0.12796  0.0000
C39  C  1.0000  0.80466  0.00723  0.12588  0.0000
C40  C  1.0000  0.87160  0.93961  0.12367  0.0000
N1  N  1.0000  0.57950  0.39071  0.15389  0.0000
N2  N  1.0000  0.80949  0.61156  0.13377  0.0000
N3  N  1.0000  0.67680  0.74646  0.12455  0.0000
N4  N  1.0000  0.38456  0.38045  0.17649  0.0000
N5  N  1.0000  0.26249  0.52373  0.16062  0.0000
N6  N  1.0000  0.48395  0.74149  0.14329  0.0000
Hf1  Hf  1.0000  0.45608  0.57495  0.19421  0.0000
Ir1  Ir  1.0000  0.62093  0.56750  0.13872  0.0000
