data_CNHfMn
_audit_creation_method           'pos2cif.pl'
_cell_length_a               12.3170003891
_cell_length_b               12.3170003891315
_cell_length_c               20
_cell_angle_alpha            90
_cell_angle_beta             90
_cell_angle_gamma            120.010002136348
_symmetry_space_group_H-M        'P1'
_symmetry_Int_Tables_number      '1'
_symmetry_cell_setting           'triclinic'
loop_
_symmetry_equiv_pos_as_xyz
x,y,z

loop_
_atom_site_label
_atom_site_type_symbol
_atom_site_occupancy
_atom_site_fract_x
_atom_site_fract_y
_atom_site_fract_z
_atom_site_U_iso_or_equiv
C1  C  1.0000  -0.00061  0.20023  0.14544  0.0000
C2  C  1.0000  0.06382  0.13146  0.14700  0.0000
C3  C  1.0000  0.19602  0.19569  0.14915  0.0000
C4  C  1.0000  0.26230  0.12805  0.14872  0.0000
C5  C  1.0000  0.39468  0.19445  0.14701  0.0000
C6  C  1.0000  0.46435  0.13130  0.14289  0.0000
C7  C  1.0000  0.59757  0.20219  0.14088  0.0000
C8  C  1.0000  0.66656  0.13681  0.14003  0.0000
C9  C  1.0000  0.79932  0.20352  0.14125  0.0000
C10  C  1.0000  0.86681  0.13638  0.14269  0.0000
C11  C  1.0000  0.99792  0.40004  0.14473  0.0000
C12  C  1.0000  0.06516  0.33243  0.14677  0.0000
C13  C  1.0000  0.19785  0.39675  0.15044  0.0000
C14  C  1.0000  0.26225  0.32719  0.15112  0.0000
C15  C  1.0000  0.45780  0.32573  0.14671  0.0000
C16  C  1.0000  0.65866  0.33514  0.13893  0.0000
C17  C  1.0000  0.79485  0.40466  0.13905  0.0000
C18  C  1.0000  0.86407  0.33716  0.14162  0.0000
C19  C  1.0000  0.00161  0.60051  0.14306  0.0000
C20  C  1.0000  0.06903  0.53296  0.14529  0.0000
C21  C  1.0000  0.20446  0.59492  0.14741  0.0000
C22  C  1.0000  0.86668  0.53881  0.13921  0.0000
C23  C  1.0000  0.00167  0.80061  0.14523  0.0000
C24  C  1.0000  0.06940  0.73324  0.14443  0.0000
C25  C  1.0000  0.20281  0.79661  0.14407  0.0000
C26  C  1.0000  0.27194  0.72906  0.14302  0.0000
C27  C  1.0000  0.40637  0.80115  0.13765  0.0000
C28  C  1.0000  0.60672  0.80919  0.13387  0.0000
C29  C  1.0000  0.80061  0.80205  0.14155  0.0000
C30  C  1.0000  0.86883  0.73529  0.14176  0.0000
C31  C  1.0000  -0.00068  -0.00115  0.14617  0.0000
C32  C  1.0000  0.06604  0.93215  0.14691  0.0000
C33  C  1.0000  0.19883  0.99643  0.14709  0.0000
C34  C  1.0000  0.26689  0.93018  0.14447  0.0000
C35  C  1.0000  0.39960  -0.00157  0.14200  0.0000
C36  C  1.0000  0.46835  0.93354  0.13831  0.0000
C37  C  1.0000  0.60175  0.00388  0.13818  0.0000
C38  C  1.0000  0.67113  0.94005  0.13791  0.0000
C39  C  1.0000  0.80294  0.00450  0.14136  0.0000
C40  C  1.0000  0.86679  0.93405  0.14341  0.0000
N1  N  1.0000  0.58456  0.39239  0.13736  0.0000
N2  N  1.0000  0.80580  0.60694  0.13547  0.0000
N3  N  1.0000  0.66660  0.73694  0.13458  0.0000
N4  N  1.0000  0.39349  0.39118  0.15401  0.0000
N5  N  1.0000  0.26781  0.52688  0.15355  0.0000
N6  N  1.0000  0.47855  0.74334  0.13320  0.0000
Hf1  Hf  1.0000  0.46756  0.58465  0.17687  0.0000
Mn1  Mn  1.0000  0.63151  0.56316  0.11011  0.0000
