data_CNHfMo
_audit_creation_method           'pos2cif.pl'
_cell_length_a               12.3170003891
_cell_length_b               12.3170003891315
_cell_length_c               20
_cell_angle_alpha            90
_cell_angle_beta             90
_cell_angle_gamma            120.010002136348
_symmetry_space_group_H-M        'P1'
_symmetry_Int_Tables_number      '1'
_symmetry_cell_setting           'triclinic'
loop_
_symmetry_equiv_pos_as_xyz
x,y,z

loop_
_atom_site_label
_atom_site_type_symbol
_atom_site_occupancy
_atom_site_fract_x
_atom_site_fract_y
_atom_site_fract_z
_atom_site_U_iso_or_equiv
C1  C  1.0000  -0.00116  0.20050  0.13334  0.0000
C2  C  1.0000  0.06464  0.13255  0.13056  0.0000
C3  C  1.0000  0.19621  0.19580  0.12996  0.0000
C4  C  1.0000  0.26360  0.12895  0.12997  0.0000
C5  C  1.0000  0.39594  0.19500  0.13256  0.0000
C6  C  1.0000  0.46502  0.13105  0.13632  0.0000
C7  C  1.0000  0.59795  0.20340  0.14051  0.0000
C8  C  1.0000  0.66644  0.13678  0.13968  0.0000
C9  C  1.0000  0.79888  0.20400  0.13921  0.0000
C10  C  1.0000  0.86642  0.13692  0.13546  0.0000
C11  C  1.0000  0.99640  0.40021  0.14246  0.0000
C12  C  1.0000  0.06324  0.33220  0.13730  0.0000
C13  C  1.0000  0.19574  0.39628  0.13814  0.0000
C14  C  1.0000  0.26139  0.32717  0.13319  0.0000
C15  C  1.0000  0.45738  0.32642  0.13859  0.0000
C16  C  1.0000  0.65807  0.33669  0.14612  0.0000
C17  C  1.0000  0.79385  0.40577  0.14786  0.0000
C18  C  1.0000  0.86275  0.33771  0.14309  0.0000
C19  C  1.0000  0.00042  0.60145  0.14679  0.0000
C20  C  1.0000  0.06685  0.53313  0.14540  0.0000
C21  C  1.0000  0.20180  0.59478  0.14688  0.0000
C22  C  1.0000  0.86540  0.54006  0.15050  0.0000
C23  C  1.0000  0.00412  0.80200  0.13985  0.0000
C24  C  1.0000  0.07101  0.73418  0.14335  0.0000
C25  C  1.0000  0.20466  0.79688  0.14231  0.0000
C26  C  1.0000  0.27348  0.72888  0.14674  0.0000
C27  C  1.0000  0.40944  0.79837  0.14777  0.0000
C28  C  1.0000  0.61009  0.80728  0.14879  0.0000
C29  C  1.0000  0.80587  0.80675  0.14376  0.0000
C30  C  1.0000  0.87223  0.73858  0.14515  0.0000
C31  C  1.0000  0.00176  0.00056  0.13207  0.0000
C32  C  1.0000  0.06825  0.93348  0.13372  0.0000
C33  C  1.0000  0.20071  0.99702  0.13251  0.0000
C34  C  1.0000  0.26853  0.93030  0.13708  0.0000
C35  C  1.0000  0.40118  0.99750  0.13769  0.0000
C36  C  1.0000  0.46969  0.93137  0.14192  0.0000
C37  C  1.0000  0.60277  0.00308  0.14030  0.0000
C38  C  1.0000  0.67194  0.93851  0.14042  0.0000
C39  C  1.0000  0.80374  0.00495  0.13641  0.0000
C40  C  1.0000  0.87020  0.93723  0.13620  0.0000
N1  N  1.0000  0.58396  0.39570  0.15024  0.0000
N2  N  1.0000  0.80559  0.61037  0.15448  0.0000
N3  N  1.0000  0.67663  0.74314  0.15432  0.0000
N4  N  1.0000  0.39119  0.38932  0.13783  0.0000
N5  N  1.0000  0.26307  0.52538  0.14711  0.0000
N6  N  1.0000  0.48241  0.73947  0.15491  0.0000
Hf1  Hf  1.0000  0.43525  0.55256  0.19102  0.0000
Mo1  Mo  1.0000  0.63202  0.57152  0.19212  0.0000
