data_CNHfNb
_audit_creation_method           'pos2cif.pl'
_cell_length_a               12.3170003891
_cell_length_b               12.3170003891315
_cell_length_c               20
_cell_angle_alpha            90
_cell_angle_beta             90
_cell_angle_gamma            120.010002136348
_symmetry_space_group_H-M        'P1'
_symmetry_Int_Tables_number      '1'
_symmetry_cell_setting           'triclinic'
loop_
_symmetry_equiv_pos_as_xyz
x,y,z

loop_
_atom_site_label
_atom_site_type_symbol
_atom_site_occupancy
_atom_site_fract_x
_atom_site_fract_y
_atom_site_fract_z
_atom_site_U_iso_or_equiv
C1  C  1.0000  -0.00131  0.20010  0.13385  0.0000
C2  C  1.0000  0.06516  0.13289  0.13177  0.0000
C3  C  1.0000  0.19728  0.19688  0.13210  0.0000
C4  C  1.0000  0.26438  0.13012  0.13225  0.0000
C5  C  1.0000  0.39705  0.19679  0.13501  0.0000
C6  C  1.0000  0.46546  0.13154  0.13891  0.0000
C7  C  1.0000  0.59803  0.20246  0.14265  0.0000
C8  C  1.0000  0.66630  0.13595  0.14111  0.0000
C9  C  1.0000  0.79899  0.20333  0.13970  0.0000
C10  C  1.0000  0.86622  0.13604  0.13599  0.0000
C11  C  1.0000  -0.00341  0.40007  0.13934  0.0000
C12  C  1.0000  0.06323  0.33213  0.13590  0.0000
C13  C  1.0000  0.19613  0.39694  0.13675  0.0000
C14  C  1.0000  0.26317  0.32869  0.13545  0.0000
C15  C  1.0000  0.45909  0.32792  0.14183  0.0000
C16  C  1.0000  0.65862  0.33631  0.14798  0.0000
C17  C  1.0000  0.79412  0.40512  0.14635  0.0000
C18  C  1.0000  0.86276  0.33689  0.14172  0.0000
C19  C  1.0000  0.00043  0.60133  0.14132  0.0000
C20  C  1.0000  0.06677  0.53313  0.14046  0.0000
C21  C  1.0000  0.20116  0.59486  0.14231  0.0000
C22  C  1.0000  0.86603  0.53975  0.14525  0.0000
C23  C  1.0000  0.00408  0.80202  0.13701  0.0000
C24  C  1.0000  0.07077  0.73422  0.13939  0.0000
C25  C  1.0000  0.20466  0.79745  0.14043  0.0000
C26  C  1.0000  0.27322  0.72936  0.14475  0.0000
C27  C  1.0000  0.40861  0.79790  0.14828  0.0000
C28  C  1.0000  0.60874  0.80583  0.14821  0.0000
C29  C  1.0000  0.80421  0.80531  0.14202  0.0000
C30  C  1.0000  0.87164  0.73765  0.14124  0.0000
C31  C  1.0000  0.00181  0.00073  0.13258  0.0000
C32  C  1.0000  0.06862  0.93399  0.13366  0.0000
C33  C  1.0000  0.20115  -0.00196  0.13373  0.0000
C34  C  1.0000  0.26856  0.93085  0.13771  0.0000
C35  C  1.0000  0.40125  -0.00207  0.13950  0.0000
C36  C  1.0000  0.46947  0.93158  0.14324  0.0000
C37  C  1.0000  0.60223  0.00234  0.14148  0.0000
C38  C  1.0000  0.67082  0.93678  0.14017  0.0000
C39  C  1.0000  0.80315  0.00386  0.13645  0.0000
C40  C  1.0000  0.86969  0.93671  0.13587  0.0000
N1  N  1.0000  0.58523  0.39512  0.15447  0.0000
N2  N  1.0000  0.80550  0.60913  0.14921  0.0000
N3  N  1.0000  0.67482  0.74088  0.15272  0.0000
N4  N  1.0000  0.39331  0.39228  0.14254  0.0000
N5  N  1.0000  0.26248  0.52630  0.14318  0.0000
N6  N  1.0000  0.48118  0.73877  0.15690  0.0000
Hf1  Hf  1.0000  0.42487  0.55150  0.19727  0.0000
Nb1  Nb  1.0000  0.64126  0.57537  0.20192  0.0000
