data_CNHfNi
_audit_creation_method           'pos2cif.pl'
_cell_length_a               12.3170003891
_cell_length_b               12.3170003891315
_cell_length_c               20
_cell_angle_alpha            90
_cell_angle_beta             90
_cell_angle_gamma            120.010002136348
_symmetry_space_group_H-M        'P1'
_symmetry_Int_Tables_number      '1'
_symmetry_cell_setting           'triclinic'
loop_
_symmetry_equiv_pos_as_xyz
x,y,z

loop_
_atom_site_label
_atom_site_type_symbol
_atom_site_occupancy
_atom_site_fract_x
_atom_site_fract_y
_atom_site_fract_z
_atom_site_U_iso_or_equiv
C1  C  1.0000  0.99841  0.19988  0.14187  0.0000
C2  C  1.0000  0.06334  0.13138  0.14226  0.0000
C3  C  1.0000  0.19514  0.19507  0.14480  0.0000
C4  C  1.0000  0.26239  0.12836  0.14426  0.0000
C5  C  1.0000  0.39475  0.19501  0.14418  0.0000
C6  C  1.0000  0.46457  0.13178  0.14122  0.0000
C7  C  1.0000  0.59738  0.20325  0.14051  0.0000
C8  C  1.0000  0.66599  0.13696  0.13892  0.0000
C9  C  1.0000  0.79872  0.20370  0.13987  0.0000
C10  C  1.0000  0.86606  0.13635  0.13987  0.0000
C11  C  1.0000  -0.00310  0.39991  0.14386  0.0000
C12  C  1.0000  0.06346  0.33190  0.14443  0.0000
C13  C  1.0000  0.19593  0.39562  0.14876  0.0000
C14  C  1.0000  0.26009  0.32595  0.14895  0.0000
C15  C  1.0000  0.45694  0.32618  0.14679  0.0000
C16  C  1.0000  0.65809  0.33742  0.14133  0.0000
C17  C  1.0000  0.79404  0.40553  0.14097  0.0000
C18  C  1.0000  0.86292  0.33752  0.14145  0.0000
C19  C  1.0000  0.00225  0.60117  0.14321  0.0000
C20  C  1.0000  0.06879  0.53300  0.14510  0.0000
C21  C  1.0000  0.20390  0.59424  0.14775  0.0000
C22  C  1.0000  0.86695  0.54027  0.14100  0.0000
C23  C  1.0000  0.00342  0.80151  0.14277  0.0000
C24  C  1.0000  0.07059  0.73369  0.14328  0.0000
C25  C  1.0000  0.20416  0.79687  0.14311  0.0000
C26  C  1.0000  0.27289  0.72895  0.14407  0.0000
C27  C  1.0000  0.40736  0.80011  0.14020  0.0000
C28  C  1.0000  0.60815  0.80681  0.13723  0.0000
C29  C  1.0000  0.80235  0.80310  0.14118  0.0000
C30  C  1.0000  0.87100  0.73649  0.14130  0.0000
C31  C  1.0000  0.00004  -0.00076  0.14157  0.0000
C32  C  1.0000  0.06728  0.93303  0.14263  0.0000
C33  C  1.0000  0.19975  0.99696  0.14286  0.0000
C34  C  1.0000  0.26781  0.93037  0.14208  0.0000
C35  C  1.0000  0.40034  -0.00161  0.14042  0.0000
C36  C  1.0000  0.46876  0.93294  0.13851  0.0000
C37  C  1.0000  0.60196  0.00337  0.13754  0.0000
C38  C  1.0000  0.67122  0.93886  0.13717  0.0000
C39  C  1.0000  0.80290  0.00429  0.13876  0.0000
C40  C  1.0000  0.86761  0.93466  0.14046  0.0000
N1  N  1.0000  0.58427  0.39580  0.14261  0.0000
N2  N  1.0000  0.80734  0.60855  0.13863  0.0000
N3  N  1.0000  0.66968  0.73694  0.13905  0.0000
N4  N  1.0000  0.39021  0.38936  0.15384  0.0000
N5  N  1.0000  0.26609  0.52550  0.15341  0.0000
N6  N  1.0000  0.47951  0.74153  0.13973  0.0000
Hf1  Hf  1.0000  0.46187  0.57725  0.18145  0.0000
Ni1  Ni  1.0000  0.63346  0.56614  0.13673  0.0000
