data_CNHfOs
_audit_creation_method           'pos2cif.pl'
_cell_length_a               12.3170003891
_cell_length_b               12.3170003891315
_cell_length_c               20
_cell_angle_alpha            90
_cell_angle_beta             90
_cell_angle_gamma            120.010002136348
_symmetry_space_group_H-M        'P1'
_symmetry_Int_Tables_number      '1'
_symmetry_cell_setting           'triclinic'
loop_
_symmetry_equiv_pos_as_xyz
x,y,z

loop_
_atom_site_label
_atom_site_type_symbol
_atom_site_occupancy
_atom_site_fract_x
_atom_site_fract_y
_atom_site_fract_z
_atom_site_U_iso_or_equiv
C1  C  1.0000  0.00149  0.20286  0.13561  0.0000
C2  C  1.0000  0.06774  0.13551  0.13522  0.0000
C3  C  1.0000  0.20034  0.19959  0.13907  0.0000
C4  C  1.0000  0.26243  0.12776  0.14170  0.0000
C5  C  1.0000  0.39401  0.19093  0.14711  0.0000
C6  C  1.0000  0.46452  0.12794  0.14449  0.0000
C7  C  1.0000  0.59717  0.19780  0.14466  0.0000
C8  C  1.0000  0.66694  0.13451  0.14009  0.0000
C9  C  1.0000  0.80019  0.20425  0.13869  0.0000
C10  C  1.0000  0.86857  0.13880  0.13454  0.0000
C11  C  1.0000  -0.00206  0.40094  0.14383  0.0000
C12  C  1.0000  0.06631  0.33438  0.14091  0.0000
C13  C  1.0000  0.19973  0.39859  0.14646  0.0000
C14  C  1.0000  0.26726  0.33199  0.14394  0.0000
C15  C  1.0000  0.45711  0.31898  0.15283  0.0000
C16  C  1.0000  0.65894  0.33037  0.14720  0.0000
C17  C  1.0000  0.79377  0.40451  0.14516  0.0000
C18  C  1.0000  0.86407  0.33794  0.14246  0.0000
C19  C  1.0000  -0.00214  0.60114  0.14489  0.0000
C20  C  1.0000  0.06643  0.53383  0.14706  0.0000
C21  C  1.0000  0.20158  0.59486  0.15162  0.0000
C22  C  1.0000  0.86136  0.53938  0.14450  0.0000
C23  C  1.0000  0.00187  0.80192  0.13929  0.0000
C24  C  1.0000  0.06831  0.73349  0.14342  0.0000
C25  C  1.0000  0.20253  0.79627  0.14458  0.0000
C26  C  1.0000  0.27221  0.72908  0.14830  0.0000
C27  C  1.0000  0.40749  0.79906  0.14467  0.0000
C28  C  1.0000  0.60989  0.80812  0.13503  0.0000
C29  C  1.0000  0.80374  0.80739  0.13387  0.0000
C30  C  1.0000  0.86955  0.73919  0.13844  0.0000
C31  C  1.0000  0.00285  0.00279  0.13432  0.0000
C32  C  1.0000  0.06710  0.93377  0.13705  0.0000
C33  C  1.0000  0.19926  0.99673  0.13989  0.0000
C34  C  1.0000  0.26676  0.92919  0.14231  0.0000
C35  C  1.0000  0.39962  0.99562  0.14221  0.0000
C36  C  1.0000  0.46889  0.93130  0.14073  0.0000
C37  C  1.0000  0.60253  0.00205  0.13791  0.0000
C38  C  1.0000  0.67272  0.93958  0.13360  0.0000
C39  C  1.0000  0.80472  0.00678  0.13194  0.0000
C40  C  1.0000  0.87027  0.93873  0.13257  0.0000
N1  N  1.0000  0.58393  0.38379  0.14997  0.0000
N2  N  1.0000  0.80062  0.61070  0.14294  0.0000
N3  N  1.0000  0.67185  0.74076  0.13152  0.0000
N4  N  1.0000  0.40021  0.39501  0.15645  0.0000
N5  N  1.0000  0.26444  0.52675  0.15788  0.0000
N6  N  1.0000  0.48171  0.74223  0.14641  0.0000
Hf1  Hf  1.0000  0.45540  0.58232  0.19665  0.0000
Os1  Os  1.0000  0.61280  0.55167  0.13793  0.0000
