data_CNHfPd
_audit_creation_method           'pos2cif.pl'
_cell_length_a               12.3170003891
_cell_length_b               12.3170003891315
_cell_length_c               20
_cell_angle_alpha            90
_cell_angle_beta             90
_cell_angle_gamma            120.010002136348
_symmetry_space_group_H-M        'P1'
_symmetry_Int_Tables_number      '1'
_symmetry_cell_setting           'triclinic'
loop_
_symmetry_equiv_pos_as_xyz
x,y,z

loop_
_atom_site_label
_atom_site_type_symbol
_atom_site_occupancy
_atom_site_fract_x
_atom_site_fract_y
_atom_site_fract_z
_atom_site_U_iso_or_equiv
C1  C  1.0000  0.99919  0.20043  0.13967  0.0000
C2  C  1.0000  0.06460  0.13221  0.13947  0.0000
C3  C  1.0000  0.19489  0.19409  0.14962  0.0000
C4  C  1.0000  0.26157  0.12669  0.14936  0.0000
C5  C  1.0000  0.39343  0.19207  0.15400  0.0000
C6  C  1.0000  0.46444  0.13043  0.14784  0.0000
C7  C  1.0000  0.59737  0.20205  0.14643  0.0000
C8  C  1.0000  0.66647  0.13709  0.14008  0.0000
C9  C  1.0000  0.79924  0.20421  0.13914  0.0000
C10  C  1.0000  0.86711  0.13768  0.13502  0.0000
C11  C  1.0000  -0.00294  0.39998  0.14506  0.0000
C12  C  1.0000  0.06362  0.33173  0.14659  0.0000
C13  C  1.0000  0.19515  0.39404  0.15526  0.0000
C14  C  1.0000  0.25890  0.32391  0.15977  0.0000
C15  C  1.0000  0.45509  0.32221  0.16128  0.0000
C16  C  1.0000  0.65757  0.33565  0.14858  0.0000
C17  C  1.0000  0.79386  0.40555  0.14302  0.0000
C18  C  1.0000  0.86321  0.33797  0.14252  0.0000
C19  C  1.0000  0.00296  0.60125  0.13958  0.0000
C20  C  1.0000  0.06901  0.53318  0.14551  0.0000
C21  C  1.0000  0.20330  0.59439  0.15008  0.0000
C22  C  1.0000  0.86772  0.54033  0.13721  0.0000
C23  C  1.0000  0.00464  0.80200  0.13193  0.0000
C24  C  1.0000  0.07132  0.73368  0.13715  0.0000
C25  C  1.0000  0.20476  0.79658  0.14087  0.0000
C26  C  1.0000  0.27358  0.72877  0.14512  0.0000
C27  C  1.0000  0.40867  0.79993  0.14225  0.0000
C28  C  1.0000  0.61008  0.80924  0.13165  0.0000
C29  C  1.0000  0.80510  0.80653  0.12554  0.0000
C30  C  1.0000  0.87258  0.73724  0.12761  0.0000
C31  C  1.0000  0.00218  0.00094  0.13231  0.0000
C32  C  1.0000  0.06834  0.93352  0.13438  0.0000
C33  C  1.0000  0.19986  0.99630  0.14153  0.0000
C34  C  1.0000  0.26811  0.92983  0.14184  0.0000
C35  C  1.0000  0.40056  -0.00254  0.14326  0.0000
C36  C  1.0000  0.46935  0.93252  0.13988  0.0000
C37  C  1.0000  0.60270  0.00416  0.13667  0.0000
C38  C  1.0000  0.67228  0.94115  0.13062  0.0000
C39  C  1.0000  0.80414  0.00602  0.12930  0.0000
C40  C  1.0000  0.87048  0.93772  0.12724  0.0000
N1  N  1.0000  0.58175  0.39009  0.15560  0.0000
N2  N  1.0000  0.81029  0.60923  0.12913  0.0000
N3  N  1.0000  0.67430  0.74586  0.12679  0.0000
N4  N  1.0000  0.38768  0.38479  0.17182  0.0000
N5  N  1.0000  0.26409  0.52479  0.15977  0.0000
N6  N  1.0000  0.48213  0.74188  0.14288  0.0000
Hf1  Hf  1.0000  0.44896  0.57594  0.19257  0.0000
Pd1  Pd  1.0000  0.62333  0.56784  0.13912  0.0000
