data_CNHfPt
_audit_creation_method           'pos2cif.pl'
_cell_length_a               12.3170003891
_cell_length_b               12.3170003891315
_cell_length_c               20
_cell_angle_alpha            90
_cell_angle_beta             90
_cell_angle_gamma            120.010002136348
_symmetry_space_group_H-M        'P1'
_symmetry_Int_Tables_number      '1'
_symmetry_cell_setting           'triclinic'
loop_
_symmetry_equiv_pos_as_xyz
x,y,z

loop_
_atom_site_label
_atom_site_type_symbol
_atom_site_occupancy
_atom_site_fract_x
_atom_site_fract_y
_atom_site_fract_z
_atom_site_U_iso_or_equiv
C1  C  1.0000  0.99905  0.20067  0.13574  0.0000
C2  C  1.0000  0.06489  0.13273  0.13459  0.0000
C3  C  1.0000  0.19456  0.19387  0.14632  0.0000
C4  C  1.0000  0.26150  0.12664  0.14684  0.0000
C5  C  1.0000  0.39314  0.19189  0.15353  0.0000
C6  C  1.0000  0.46450  0.13038  0.14791  0.0000
C7  C  1.0000  0.59729  0.20255  0.14722  0.0000
C8  C  1.0000  0.66638  0.13726  0.14026  0.0000
C9  C  1.0000  0.79902  0.20445  0.13793  0.0000
C10  C  1.0000  0.86687  0.13797  0.13193  0.0000
C11  C  1.0000  -0.00342  0.40001  0.14410  0.0000
C12  C  1.0000  0.06313  0.33161  0.14427  0.0000
C13  C  1.0000  0.19429  0.39342  0.15402  0.0000
C14  C  1.0000  0.25742  0.32267  0.15896  0.0000
C15  C  1.0000  0.45328  0.32116  0.16286  0.0000
C16  C  1.0000  0.65737  0.33635  0.15018  0.0000
C17  C  1.0000  0.79355  0.40617  0.14423  0.0000
C18  C  1.0000  0.86287  0.33818  0.14211  0.0000
C19  C  1.0000  0.00293  0.60153  0.13973  0.0000
C20  C  1.0000  0.06874  0.53322  0.14545  0.0000
C21  C  1.0000  0.20295  0.59408  0.15055  0.0000
C22  C  1.0000  0.86763  0.54075  0.13849  0.0000
C23  C  1.0000  0.00577  0.80251  0.12939  0.0000
C24  C  1.0000  0.07204  0.73390  0.13619  0.0000
C25  C  1.0000  0.20544  0.79646  0.14054  0.0000
C26  C  1.0000  0.27417  0.72853  0.14655  0.0000
C27  C  1.0000  0.40970  0.79946  0.14561  0.0000
C28  C  1.0000  0.61088  0.80880  0.13505  0.0000
C29  C  1.0000  0.80698  0.80793  0.12477  0.0000
C30  C  1.0000  0.87397  0.73856  0.12686  0.0000
C31  C  1.0000  0.00307  0.00168  0.12724  0.0000
C32  C  1.0000  0.06923  0.93408  0.13020  0.0000
C33  C  1.0000  0.20047  0.99651  0.13852  0.0000
C34  C  1.0000  0.26866  0.92979  0.14076  0.0000
C35  C  1.0000  0.40098  -0.00270  0.14339  0.0000
C36  C  1.0000  0.46983  0.93204  0.14168  0.0000
C37  C  1.0000  0.60304  0.00409  0.13766  0.0000
C38  C  1.0000  0.67239  0.94064  0.13080  0.0000
C39  C  1.0000  0.80418  0.00622  0.12668  0.0000
C40  C  1.0000  0.87132  0.93873  0.12370  0.0000
N1  N  1.0000  0.58070  0.39089  0.15815  0.0000
N2  N  1.0000  0.81042  0.61049  0.13133  0.0000
N3  N  1.0000  0.67690  0.74658  0.13058  0.0000
N4  N  1.0000  0.38469  0.38205  0.17433  0.0000
N5  N  1.0000  0.26301  0.52386  0.16002  0.0000
N6  N  1.0000  0.48403  0.74172  0.14934  0.0000
Hf1  Hf  1.0000  0.44320  0.57086  0.19849  0.0000
Pt1  Pt  1.0000  0.62400  0.56988  0.14690  0.0000
