data_CNHfRe
_audit_creation_method           'pos2cif.pl'
_cell_length_a               12.3170003891
_cell_length_b               12.3170003891315
_cell_length_c               20
_cell_angle_alpha            90
_cell_angle_beta             90
_cell_angle_gamma            120.010002136348
_symmetry_space_group_H-M        'P1'
_symmetry_Int_Tables_number      '1'
_symmetry_cell_setting           'triclinic'
loop_
_symmetry_equiv_pos_as_xyz
x,y,z

loop_
_atom_site_label
_atom_site_type_symbol
_atom_site_occupancy
_atom_site_fract_x
_atom_site_fract_y
_atom_site_fract_z
_atom_site_U_iso_or_equiv
C1  C  1.0000  0.99847  0.20047  0.13012  0.0000
C2  C  1.0000  0.06450  0.13258  0.12684  0.0000
C3  C  1.0000  0.19626  0.19574  0.12840  0.0000
C4  C  1.0000  0.26395  0.12924  0.12968  0.0000
C5  C  1.0000  0.39601  0.19527  0.13506  0.0000
C6  C  1.0000  0.46496  0.13089  0.13927  0.0000
C7  C  1.0000  0.59782  0.20293  0.14331  0.0000
C8  C  1.0000  0.66627  0.13648  0.14131  0.0000
C9  C  1.0000  0.79875  0.20402  0.13898  0.0000
C10  C  1.0000  0.86614  0.13675  0.13387  0.0000
C11  C  1.0000  0.99623  0.40038  0.13918  0.0000
C12  C  1.0000  0.06275  0.33225  0.13372  0.0000
C13  C  1.0000  0.19550  0.39673  0.13496  0.0000
C14  C  1.0000  0.26133  0.32693  0.13367  0.0000
C15  C  1.0000  0.45635  0.32589  0.14394  0.0000
C16  C  1.0000  0.65793  0.33613  0.14971  0.0000
C17  C  1.0000  0.79352  0.40566  0.14801  0.0000
C18  C  1.0000  0.86221  0.33770  0.14179  0.0000
C19  C  1.0000  0.00054  0.60151  0.14325  0.0000
C20  C  1.0000  0.06666  0.53304  0.14186  0.0000
C21  C  1.0000  0.20156  0.59427  0.14340  0.0000
C22  C  1.0000  0.86589  0.54088  0.14786  0.0000
C23  C  1.0000  0.00491  0.80228  0.13555  0.0000
C24  C  1.0000  0.07140  0.73422  0.13948  0.0000
C25  C  1.0000  0.20531  0.79692  0.14035  0.0000
C26  C  1.0000  0.27394  0.72876  0.14597  0.0000
C27  C  1.0000  0.40956  0.79789  0.15058  0.0000
C28  C  1.0000  0.61104  0.80754  0.15387  0.0000
C29  C  1.0000  0.80717  0.80787  0.14377  0.0000
C30  C  1.0000  0.87317  0.73915  0.14200  0.0000
C31  C  1.0000  0.00191  0.00069  0.12783  0.0000
C32  C  1.0000  0.06887  0.93386  0.12982  0.0000
C33  C  1.0000  0.20121  0.99715  0.13067  0.0000
C34  C  1.0000  0.26880  0.93027  0.13662  0.0000
C35  C  1.0000  0.40149  0.99752  0.13967  0.0000
C36  C  1.0000  0.46985  0.93132  0.14481  0.0000
C37  C  1.0000  0.60273  0.00266  0.14282  0.0000
C38  C  1.0000  0.67203  0.93794  0.14254  0.0000
C39  C  1.0000  0.80367  0.00490  0.13580  0.0000
C40  C  1.0000  0.87023  0.93731  0.13379  0.0000
N1  N  1.0000  0.58271  0.39364  0.15880  0.0000
N2  N  1.0000  0.80702  0.61154  0.15083  0.0000
N3  N  1.0000  0.68007  0.74514  0.16157  0.0000
N4  N  1.0000  0.38970  0.38850  0.14306  0.0000
N5  N  1.0000  0.26252  0.52541  0.14267  0.0000
N6  N  1.0000  0.48308  0.73988  0.16075  0.0000
Hf1  Hf  1.0000  0.42929  0.55161  0.19805  0.0000
Re1  Re  1.0000  0.63177  0.57142  0.19206  0.0000
