data_CNHfRh
_audit_creation_method           'pos2cif.pl'
_cell_length_a               12.3170003891
_cell_length_b               12.3170003891315
_cell_length_c               20
_cell_angle_alpha            90
_cell_angle_beta             90
_cell_angle_gamma            120.010002136348
_symmetry_space_group_H-M        'P1'
_symmetry_Int_Tables_number      '1'
_symmetry_cell_setting           'triclinic'
loop_
_symmetry_equiv_pos_as_xyz
x,y,z

loop_
_atom_site_label
_atom_site_type_symbol
_atom_site_occupancy
_atom_site_fract_x
_atom_site_fract_y
_atom_site_fract_z
_atom_site_U_iso_or_equiv
C1  C  1.0000  -0.00101  0.20058  0.14386  0.0000
C2  C  1.0000  0.06417  0.13206  0.14491  0.0000
C3  C  1.0000  0.19491  0.19407  0.15352  0.0000
C4  C  1.0000  0.26141  0.12627  0.15339  0.0000
C5  C  1.0000  0.39337  0.19126  0.15556  0.0000
C6  C  1.0000  0.46394  0.12954  0.14789  0.0000
C7  C  1.0000  0.59676  0.20150  0.14481  0.0000
C8  C  1.0000  0.66616  0.13709  0.13999  0.0000
C9  C  1.0000  0.79906  0.20457  0.14003  0.0000
C10  C  1.0000  0.86719  0.13817  0.13829  0.0000
C11  C  1.0000  -0.00301  0.40029  0.14579  0.0000
C12  C  1.0000  0.06365  0.33220  0.14870  0.0000
C13  C  1.0000  0.19587  0.39555  0.15605  0.0000
C14  C  1.0000  0.25992  0.32444  0.16094  0.0000
C15  C  1.0000  0.45501  0.32183  0.15820  0.0000
C16  C  1.0000  0.65652  0.33501  0.14382  0.0000
C17  C  1.0000  0.79299  0.40528  0.14118  0.0000
C18  C  1.0000  0.86258  0.33812  0.14245  0.0000
C19  C  1.0000  0.00189  0.60096  0.14119  0.0000
C20  C  1.0000  0.06842  0.53304  0.14572  0.0000
C21  C  1.0000  0.20374  0.59368  0.14885  0.0000
C22  C  1.0000  0.86642  0.54048  0.13850  0.0000
C23  C  1.0000  0.00394  0.80176  0.13692  0.0000
C24  C  1.0000  0.07058  0.73335  0.14046  0.0000
C25  C  1.0000  0.20446  0.79595  0.14260  0.0000
C26  C  1.0000  0.27369  0.72846  0.14349  0.0000
C27  C  1.0000  0.40854  0.79940  0.13807  0.0000
C28  C  1.0000  0.61023  0.81047  0.12657  0.0000
C29  C  1.0000  0.80468  0.80729  0.12785  0.0000
C30  C  1.0000  0.87172  0.73768  0.13202  0.0000
C31  C  1.0000  0.00164  0.00085  0.13871  0.0000
C32  C  1.0000  0.06774  0.93316  0.14018  0.0000
C33  C  1.0000  0.19933  0.99558  0.14609  0.0000
C34  C  1.0000  0.26755  0.92909  0.14427  0.0000
C35  C  1.0000  0.40023  -0.00322  0.14373  0.0000
C36  C  1.0000  0.46912  0.93251  0.13810  0.0000
C37  C  1.0000  0.60241  0.00421  0.13590  0.0000
C38  C  1.0000  0.67266  0.94188  0.13041  0.0000
C39  C  1.0000  0.80434  0.00669  0.13239  0.0000
C40  C  1.0000  0.87021  0.93815  0.13207  0.0000
N1  N  1.0000  0.58013  0.38940  0.14499  0.0000
N2  N  1.0000  0.80854  0.60997  0.13341  0.0000
N3  N  1.0000  0.67452  0.74606  0.12184  0.0000
N4  N  1.0000  0.38877  0.38481  0.16896  0.0000
N5  N  1.0000  0.26439  0.52497  0.15728  0.0000
N6  N  1.0000  0.48142  0.74204  0.13383  0.0000
Hf1  Hf  1.0000  0.46536  0.58062  0.18215  0.0000
Rh1  Rh  1.0000  0.62083  0.56402  0.12601  0.0000
