data_CNHfRu
_audit_creation_method           'pos2cif.pl'
_cell_length_a               12.3170003891
_cell_length_b               12.3170003891315
_cell_length_c               20
_cell_angle_alpha            90
_cell_angle_beta             90
_cell_angle_gamma            120.010002136348
_symmetry_space_group_H-M        'P1'
_symmetry_Int_Tables_number      '1'
_symmetry_cell_setting           'triclinic'
loop_
_symmetry_equiv_pos_as_xyz
x,y,z

loop_
_atom_site_label
_atom_site_type_symbol
_atom_site_occupancy
_atom_site_fract_x
_atom_site_fract_y
_atom_site_fract_z
_atom_site_U_iso_or_equiv
C1  C  1.0000  0.00092  0.20223  0.13981  0.0000
C2  C  1.0000  0.06639  0.13425  0.14068  0.0000
C3  C  1.0000  0.19880  0.19818  0.14363  0.0000
C4  C  1.0000  0.26210  0.12751  0.14562  0.0000
C5  C  1.0000  0.39402  0.19165  0.14790  0.0000
C6  C  1.0000  0.46415  0.12862  0.14444  0.0000
C7  C  1.0000  0.59699  0.19853  0.14315  0.0000
C8  C  1.0000  0.66672  0.13520  0.14011  0.0000
C9  C  1.0000  0.79995  0.20421  0.13951  0.0000
C10  C  1.0000  0.86825  0.13847  0.13791  0.0000
C11  C  1.0000  -0.00193  0.40083  0.14391  0.0000
C12  C  1.0000  0.06607  0.33401  0.14316  0.0000
C13  C  1.0000  0.19942  0.39840  0.14816  0.0000
C14  C  1.0000  0.26575  0.33028  0.14681  0.0000
C15  C  1.0000  0.45754  0.32089  0.14987  0.0000
C16  C  1.0000  0.65871  0.33113  0.14289  0.0000
C17  C  1.0000  0.79394  0.40437  0.14197  0.0000
C18  C  1.0000  0.86398  0.33788  0.14170  0.0000
C19  C  1.0000  -0.00112  0.60091  0.14401  0.0000
C20  C  1.0000  0.06720  0.53361  0.14611  0.0000
C21  C  1.0000  0.20272  0.59472  0.14991  0.0000
C22  C  1.0000  0.86262  0.53932  0.14203  0.0000
C23  C  1.0000  0.00133  0.80138  0.14251  0.0000
C24  C  1.0000  0.06827  0.73326  0.14438  0.0000
C25  C  1.0000  0.20242  0.79616  0.14498  0.0000
C26  C  1.0000  0.27212  0.72909  0.14617  0.0000
C27  C  1.0000  0.40693  0.79962  0.14117  0.0000
C28  C  1.0000  0.60918  0.80951  0.13309  0.0000
C29  C  1.0000  0.80220  0.80609  0.13705  0.0000
C30  C  1.0000  0.86865  0.73786  0.14032  0.0000
C31  C  1.0000  0.00160  0.00168  0.14022  0.0000
C32  C  1.0000  0.06642  0.93318  0.14222  0.0000
C33  C  1.0000  0.19875  0.99630  0.14399  0.0000
C34  C  1.0000  0.26644  0.92917  0.14408  0.0000
C35  C  1.0000  0.39929  0.99621  0.14268  0.0000
C36  C  1.0000  0.46846  0.93209  0.13962  0.0000
C37  C  1.0000  0.60206  0.00276  0.13792  0.0000
C38  C  1.0000  0.67248  0.94067  0.13499  0.0000
C39  C  1.0000  0.80430  0.00655  0.13591  0.0000
C40  C  1.0000  0.86908  0.93761  0.13765  0.0000
N1  N  1.0000  0.58397  0.38493  0.14257  0.0000
N2  N  1.0000  0.80199  0.60936  0.14064  0.0000
N3  N  1.0000  0.67041  0.74122  0.13068  0.0000
N4  N  1.0000  0.39813  0.39369  0.15480  0.0000
N5  N  1.0000  0.26583  0.52717  0.15604  0.0000
N6  N  1.0000  0.48030  0.74277  0.13929  0.0000
Hf1  Hf  1.0000  0.46680  0.58568  0.18716  0.0000
Ru1  Ru  1.0000  0.61644  0.55193  0.12854  0.0000
