data_CNHfSc
_audit_creation_method           'pos2cif.pl'
_cell_length_a               12.3170003891
_cell_length_b               12.3170003891315
_cell_length_c               20
_cell_angle_alpha            90
_cell_angle_beta             90
_cell_angle_gamma            120.010002136348
_symmetry_space_group_H-M        'P1'
_symmetry_Int_Tables_number      '1'
_symmetry_cell_setting           'triclinic'
loop_
_symmetry_equiv_pos_as_xyz
x,y,z

loop_
_atom_site_label
_atom_site_type_symbol
_atom_site_occupancy
_atom_site_fract_x
_atom_site_fract_y
_atom_site_fract_z
_atom_site_U_iso_or_equiv
C1  C  1.0000  -0.00059  0.19998  0.14087  0.0000
C2  C  1.0000  0.06600  0.13317  0.14142  0.0000
C3  C  1.0000  0.19857  0.19834  0.14184  0.0000
C4  C  1.0000  0.26468  0.13116  0.13946  0.0000
C5  C  1.0000  0.39750  0.19764  0.13836  0.0000
C6  C  1.0000  0.46565  0.13198  0.13848  0.0000
C7  C  1.0000  0.59865  0.20131  0.13969  0.0000
C8  C  1.0000  0.66660  0.13502  0.13881  0.0000
C9  C  1.0000  0.79958  0.20219  0.13924  0.0000
C10  C  1.0000  0.86672  0.13501  0.13991  0.0000
C11  C  1.0000  -0.00224  0.39958  0.13794  0.0000
C12  C  1.0000  0.06437  0.33197  0.13970  0.0000
C13  C  1.0000  0.19778  0.39783  0.13958  0.0000
C14  C  1.0000  0.26642  0.33151  0.14229  0.0000
C15  C  1.0000  0.46245  0.32901  0.14340  0.0000
C16  C  1.0000  0.66064  0.33442  0.14350  0.0000
C17  C  1.0000  0.79581  0.40354  0.14088  0.0000
C18  C  1.0000  0.86415  0.33560  0.13912  0.0000
C19  C  1.0000  0.00100  0.60096  0.13656  0.0000
C20  C  1.0000  0.06691  0.53307  0.13636  0.0000
C21  C  1.0000  0.20005  0.59648  0.13742  0.0000
C22  C  1.0000  0.86763  0.53794  0.13887  0.0000
C23  C  1.0000  0.00272  0.80188  0.13921  0.0000
C24  C  1.0000  0.06963  0.73435  0.13743  0.0000
C25  C  1.0000  0.20321  0.79848  0.13831  0.0000
C26  C  1.0000  0.27164  0.73049  0.14018  0.0000
C27  C  1.0000  0.40638  0.79966  0.14411  0.0000
C28  C  1.0000  0.60620  0.80539  0.14546  0.0000
C29  C  1.0000  0.80001  0.80154  0.14361  0.0000
C30  C  1.0000  0.86932  0.73546  0.14067  0.0000
C31  C  1.0000  0.00086  0.00027  0.14119  0.0000
C32  C  1.0000  0.06780  0.93389  0.14008  0.0000
C33  C  1.0000  0.20054  0.99884  0.13903  0.0000
C34  C  1.0000  0.26777  0.93178  0.13841  0.0000
C35  C  1.0000  0.40067  -0.00111  0.13830  0.0000
C36  C  1.0000  0.46860  0.93259  0.14007  0.0000
C37  C  1.0000  0.60163  0.00200  0.13927  0.0000
C38  C  1.0000  0.66984  0.93646  0.13965  0.0000
C39  C  1.0000  0.80256  0.00267  0.14029  0.0000
C40  C  1.0000  0.86810  0.93468  0.14217  0.0000
N1  N  1.0000  0.58951  0.39391  0.15054  0.0000
N2  N  1.0000  0.80669  0.60580  0.14176  0.0000
N3  N  1.0000  0.66768  0.73732  0.14916  0.0000
N4  N  1.0000  0.39897  0.39660  0.14673  0.0000
N5  N  1.0000  0.26193  0.52842  0.13912  0.0000
N6  N  1.0000  0.47807  0.74029  0.15301  0.0000
Hf1  Hf  1.0000  0.41559  0.55882  0.19439  0.0000
Sc1  Sc  1.0000  0.65282  0.57296  0.19608  0.0000
