data_CNHfTa
_audit_creation_method           'pos2cif.pl'
_cell_length_a               12.3170003891
_cell_length_b               12.3170003891315
_cell_length_c               20
_cell_angle_alpha            90
_cell_angle_beta             90
_cell_angle_gamma            120.010002136348
_symmetry_space_group_H-M        'P1'
_symmetry_Int_Tables_number      '1'
_symmetry_cell_setting           'triclinic'
loop_
_symmetry_equiv_pos_as_xyz
x,y,z

loop_
_atom_site_label
_atom_site_type_symbol
_atom_site_occupancy
_atom_site_fract_x
_atom_site_fract_y
_atom_site_fract_z
_atom_site_U_iso_or_equiv
C1  C  1.0000  -0.00131  0.19993  0.13580  0.0000
C2  C  1.0000  0.06545  0.13302  0.13475  0.0000
C3  C  1.0000  0.19758  0.19719  0.13548  0.0000
C4  C  1.0000  0.26468  0.13073  0.13512  0.0000
C5  C  1.0000  0.39752  0.19762  0.13752  0.0000
C6  C  1.0000  0.46563  0.13183  0.14056  0.0000
C7  C  1.0000  0.59824  0.20235  0.14354  0.0000
C8  C  1.0000  0.66621  0.13554  0.14157  0.0000
C9  C  1.0000  0.79899  0.20289  0.13980  0.0000
C10  C  1.0000  0.86613  0.13556  0.13740  0.0000
C11  C  1.0000  -0.00331  0.39981  0.13739  0.0000
C12  C  1.0000  0.06323  0.33198  0.13610  0.0000
C13  C  1.0000  0.19637  0.39715  0.13685  0.0000
C14  C  1.0000  0.26351  0.32924  0.13816  0.0000
C15  C  1.0000  0.45960  0.32860  0.14433  0.0000
C16  C  1.0000  0.65957  0.33612  0.14809  0.0000
C17  C  1.0000  0.79444  0.40469  0.14388  0.0000
C18  C  1.0000  0.86293  0.33635  0.14013  0.0000
C19  C  1.0000  0.00038  0.60113  0.13759  0.0000
C20  C  1.0000  0.06665  0.53306  0.13734  0.0000
C21  C  1.0000  0.20073  0.59513  0.13935  0.0000
C22  C  1.0000  0.86629  0.53899  0.14068  0.0000
C23  C  1.0000  0.00418  0.80205  0.13612  0.0000
C24  C  1.0000  0.07065  0.73427  0.13691  0.0000
C25  C  1.0000  0.20447  0.79773  0.13900  0.0000
C26  C  1.0000  0.27284  0.72942  0.14288  0.0000
C27  C  1.0000  0.40783  0.79794  0.14782  0.0000
C28  C  1.0000  0.60761  0.80495  0.14830  0.0000
C29  C  1.0000  0.80426  0.80488  0.14211  0.0000
C30  C  1.0000  0.87143  0.73736  0.13885  0.0000
C31  C  1.0000  0.00193  0.00086  0.13523  0.0000
C32  C  1.0000  0.06879  0.93417  0.13522  0.0000
C33  C  1.0000  0.20132  -0.00154  0.13547  0.0000
C34  C  1.0000  0.26855  0.93113  0.13812  0.0000
C35  C  1.0000  0.40134  -0.00168  0.14029  0.0000
C36  C  1.0000  0.46926  0.93165  0.14351  0.0000
C37  C  1.0000  0.60204  0.00201  0.14210  0.0000
C38  C  1.0000  0.67031  0.93602  0.14091  0.0000
C39  C  1.0000  0.80293  0.00330  0.13822  0.0000
C40  C  1.0000  0.86980  0.93669  0.13810  0.0000
N1  N  1.0000  0.58654  0.39573  0.15658  0.0000
N2  N  1.0000  0.80491  0.60780  0.14334  0.0000
N3  N  1.0000  0.67386  0.73964  0.15206  0.0000
N4  N  1.0000  0.39414  0.39336  0.14537  0.0000
N5  N  1.0000  0.26238  0.52692  0.14048  0.0000
N6  N  1.0000  0.48008  0.73824  0.15710  0.0000
Hf1  Hf  1.0000  0.41887  0.55198  0.19829  0.0000
Ta1  Ta  1.0000  0.64718  0.57737  0.19812  0.0000
