data_CNHfTc
_audit_creation_method           'pos2cif.pl'
_cell_length_a               12.3170003891
_cell_length_b               12.3170003891315
_cell_length_c               20
_cell_angle_alpha            90
_cell_angle_beta             90
_cell_angle_gamma            120.010002136348
_symmetry_space_group_H-M        'P1'
_symmetry_Int_Tables_number      '1'
_symmetry_cell_setting           'triclinic'
loop_
_symmetry_equiv_pos_as_xyz
x,y,z

loop_
_atom_site_label
_atom_site_type_symbol
_atom_site_occupancy
_atom_site_fract_x
_atom_site_fract_y
_atom_site_fract_z
_atom_site_U_iso_or_equiv
C1  C  1.0000  -0.00061  0.20128  0.13143  0.0000
C2  C  1.0000  0.06424  0.13219  0.12865  0.0000
C3  C  1.0000  0.19520  0.19398  0.12355  0.0000
C4  C  1.0000  0.26234  0.12646  0.12419  0.0000
C5  C  1.0000  0.39487  0.19112  0.12439  0.0000
C6  C  1.0000  0.46451  0.12871  0.13191  0.0000
C7  C  1.0000  0.59750  0.20187  0.13617  0.0000
C8  C  1.0000  0.66675  0.13705  0.13919  0.0000
C9  C  1.0000  0.79957  0.20521  0.13866  0.0000
C10  C  1.0000  0.86747  0.13861  0.13675  0.0000
C11  C  1.0000  0.99707  0.40102  0.14035  0.0000
C12  C  1.0000  0.06405  0.33309  0.13332  0.0000
C13  C  1.0000  0.19667  0.39647  0.13153  0.0000
C14  C  1.0000  0.26114  0.32555  0.12355  0.0000
C15  C  1.0000  0.45660  0.32200  0.12746  0.0000
C16  C  1.0000  0.65705  0.33480  0.14115  0.0000
C17  C  1.0000  0.79294  0.40573  0.14645  0.0000
C18  C  1.0000  0.86307  0.33876  0.14136  0.0000
C19  C  1.0000  -0.00050  0.60119  0.14994  0.0000
C20  C  1.0000  0.06699  0.53357  0.14533  0.0000
C21  C  1.0000  0.20238  0.59505  0.14630  0.0000
C22  C  1.0000  0.86367  0.53979  0.15323  0.0000
C23  C  1.0000  0.00353  0.80234  0.14708  0.0000
C24  C  1.0000  0.07023  0.73387  0.14809  0.0000
C25  C  1.0000  0.20421  0.79634  0.14545  0.0000
C26  C  1.0000  0.27396  0.72908  0.14931  0.0000
C27  C  1.0000  0.41020  0.79948  0.15255  0.0000
C28  C  1.0000  0.61318  0.81283  0.16088  0.0000
C29  C  1.0000  0.80759  0.81105  0.15791  0.0000
C30  C  1.0000  0.87218  0.74057  0.15598  0.0000
C31  C  1.0000  0.00173  0.00090  0.13546  0.0000
C32  C  1.0000  0.06764  0.93316  0.13758  0.0000
C33  C  1.0000  0.19961  0.99535  0.13206  0.0000
C34  C  1.0000  0.26782  0.92911  0.13814  0.0000
C35  C  1.0000  0.40065  0.99604  0.13750  0.0000
C36  C  1.0000  0.46991  0.93189  0.14510  0.0000
C37  C  1.0000  0.60329  0.00423  0.14381  0.0000
C38  C  1.0000  0.67382  0.94189  0.14853  0.0000
C39  C  1.0000  0.80525  0.00749  0.14292  0.0000
C40  C  1.0000  0.87139  0.93964  0.14492  0.0000
N1  N  1.0000  0.58208  0.39130  0.14328  0.0000
N2  N  1.0000  0.80529  0.61149  0.16140  0.0000
N3  N  1.0000  0.67983  0.75067  0.17087  0.0000
N4  N  1.0000  0.39055  0.38426  0.12326  0.0000
N5  N  1.0000  0.26374  0.52571  0.14204  0.0000
N6  N  1.0000  0.48403  0.74334  0.16304  0.0000
Hf1  Hf  1.0000  0.44073  0.55001  0.17461  0.0000
Tc1  Tc  1.0000  0.62164  0.56561  0.17531  0.0000
