data_CNHfTi
_audit_creation_method           'pos2cif.pl'
_cell_length_a               12.3170003891
_cell_length_b               12.3170003891315
_cell_length_c               20
_cell_angle_alpha            90
_cell_angle_beta             90
_cell_angle_gamma            120.010002136348
_symmetry_space_group_H-M        'P1'
_symmetry_Int_Tables_number      '1'
_symmetry_cell_setting           'triclinic'
loop_
_symmetry_equiv_pos_as_xyz
x,y,z

loop_
_atom_site_label
_atom_site_type_symbol
_atom_site_occupancy
_atom_site_fract_x
_atom_site_fract_y
_atom_site_fract_z
_atom_site_U_iso_or_equiv
C1  C  1.0000  -0.00128  0.19961  0.13768  0.0000
C2  C  1.0000  0.06512  0.13257  0.13782  0.0000
C3  C  1.0000  0.19739  0.19721  0.14002  0.0000
C4  C  1.0000  0.26427  0.13040  0.13945  0.0000
C5  C  1.0000  0.39703  0.19757  0.14096  0.0000
C6  C  1.0000  0.46533  0.13202  0.14107  0.0000
C7  C  1.0000  0.59817  0.20234  0.14221  0.0000
C8  C  1.0000  0.66623  0.13573  0.13989  0.0000
C9  C  1.0000  0.79892  0.20251  0.13900  0.0000
C10  C  1.0000  0.86609  0.13518  0.13746  0.0000
C11  C  1.0000  -0.00299  0.39951  0.13848  0.0000
C12  C  1.0000  0.06362  0.33160  0.13852  0.0000
C13  C  1.0000  0.19636  0.39658  0.14090  0.0000
C14  C  1.0000  0.26377  0.32925  0.14322  0.0000
C15  C  1.0000  0.46054  0.32906  0.14738  0.0000
C16  C  1.0000  0.65949  0.33588  0.14608  0.0000
C17  C  1.0000  0.79492  0.40411  0.14212  0.0000
C18  C  1.0000  0.86331  0.33607  0.13970  0.0000
C19  C  1.0000  0.00126  0.60077  0.13746  0.0000
C20  C  1.0000  0.06713  0.53270  0.13829  0.0000
C21  C  1.0000  0.20109  0.59515  0.14093  0.0000
C22  C  1.0000  0.86713  0.53831  0.13874  0.0000
C23  C  1.0000  0.00336  0.80164  0.13742  0.0000
C24  C  1.0000  0.07030  0.73390  0.13782  0.0000
C25  C  1.0000  0.20388  0.79760  0.13991  0.0000
C26  C  1.0000  0.27230  0.72949  0.14291  0.0000
C27  C  1.0000  0.40738  0.79892  0.14586  0.0000
C28  C  1.0000  0.60697  0.80525  0.14339  0.0000
C29  C  1.0000  0.80146  0.80264  0.13907  0.0000
C30  C  1.0000  0.87027  0.73575  0.13739  0.0000
C31  C  1.0000  0.00102  0.00005  0.13749  0.0000
C32  C  1.0000  0.06804  0.93358  0.13787  0.0000
C33  C  1.0000  0.20077  0.99827  0.13861  0.0000
C34  C  1.0000  0.26812  0.93111  0.13964  0.0000
C35  C  1.0000  0.40081  -0.00145  0.14032  0.0000
C36  C  1.0000  0.46888  0.93215  0.14163  0.0000
C37  C  1.0000  0.60177  0.00231  0.13988  0.0000
C38  C  1.0000  0.67003  0.93669  0.13827  0.0000
C39  C  1.0000  0.80260  0.00300  0.13718  0.0000
C40  C  1.0000  0.86865  0.93525  0.13802  0.0000
N1  N  1.0000  0.58817  0.39595  0.15412  0.0000
N2  N  1.0000  0.80622  0.60627  0.13890  0.0000
N3  N  1.0000  0.66993  0.73802  0.14389  0.0000
N4  N  1.0000  0.39482  0.39404  0.15076  0.0000
N5  N  1.0000  0.26224  0.52664  0.14458  0.0000
N6  N  1.0000  0.47939  0.73941  0.15297  0.0000
Hf1  Hf  1.0000  0.42419  0.56029  0.19836  0.0000
Ti1  Ti  1.0000  0.65257  0.58027  0.18830  0.0000
