data_CNHfV
_audit_creation_method           'pos2cif.pl'
_cell_length_a               12.3170003891
_cell_length_b               12.3170003891315
_cell_length_c               20
_cell_angle_alpha            90
_cell_angle_beta             90
_cell_angle_gamma            120.010002136348
_symmetry_space_group_H-M        'P1'
_symmetry_Int_Tables_number      '1'
_symmetry_cell_setting           'triclinic'
loop_
_symmetry_equiv_pos_as_xyz
x,y,z

loop_
_atom_site_label
_atom_site_type_symbol
_atom_site_occupancy
_atom_site_fract_x
_atom_site_fract_y
_atom_site_fract_z
_atom_site_U_iso_or_equiv
C1  C  1.0000  0.00187  0.20222  0.14106  0.0000
C2  C  1.0000  0.06846  0.13517  0.14172  0.0000
C3  C  1.0000  0.20095  0.19969  0.14181  0.0000
C4  C  1.0000  0.26419  0.12937  0.14153  0.0000
C5  C  1.0000  0.39648  0.19320  0.14065  0.0000
C6  C  1.0000  0.46597  0.12936  0.14109  0.0000
C7  C  1.0000  0.59885  0.19895  0.14161  0.0000
C8  C  1.0000  0.66795  0.13467  0.14232  0.0000
C9  C  1.0000  0.80112  0.20371  0.14128  0.0000
C10  C  1.0000  0.86892  0.13757  0.14108  0.0000
C11  C  1.0000  -0.00103  0.40097  0.14018  0.0000
C12  C  1.0000  0.06670  0.33387  0.14073  0.0000
C13  C  1.0000  0.20067  0.39934  0.14067  0.0000
C14  C  1.0000  0.26944  0.33335  0.14084  0.0000
C15  C  1.0000  0.46188  0.32279  0.14181  0.0000
C16  C  1.0000  0.66109  0.33150  0.14107  0.0000
C17  C  1.0000  0.79570  0.40435  0.14037  0.0000
C18  C  1.0000  0.86540  0.33754  0.14045  0.0000
C19  C  1.0000  -0.00135  0.60140  0.14056  0.0000
C20  C  1.0000  0.06673  0.53430  0.14031  0.0000
C21  C  1.0000  0.20071  0.59715  0.14219  0.0000
C22  C  1.0000  0.86294  0.53929  0.14002  0.0000
C23  C  1.0000  0.00150  0.80150  0.14150  0.0000
C24  C  1.0000  0.06870  0.73395  0.14159  0.0000
C25  C  1.0000  0.20281  0.79769  0.14315  0.0000
C26  C  1.0000  0.27207  0.73055  0.14521  0.0000
C27  C  1.0000  0.40739  0.79985  0.14873  0.0000
C28  C  1.0000  0.60930  0.80731  0.14587  0.0000
C29  C  1.0000  0.80290  0.80568  0.14127  0.0000
C30  C  1.0000  0.86878  0.73660  0.14066  0.0000
C31  C  1.0000  0.00301  0.00227  0.14182  0.0000
C32  C  1.0000  0.06756  0.93383  0.14208  0.0000
C33  C  1.0000  0.20005  -0.00229  0.14207  0.0000
C34  C  1.0000  0.26763  0.93061  0.14261  0.0000
C35  C  1.0000  0.40055  -0.00319  0.14230  0.0000
C36  C  1.0000  0.46939  0.93190  0.14475  0.0000
C37  C  1.0000  0.60309  0.00233  0.14408  0.0000
C38  C  1.0000  0.67243  0.93876  0.14329  0.0000
C39  C  1.0000  0.80461  0.00537  0.14131  0.0000
C40  C  1.0000  0.87024  0.93731  0.14157  0.0000
N1  N  1.0000  0.58856  0.38749  0.14096  0.0000
N2  N  1.0000  0.80054  0.60759  0.13943  0.0000
N3  N  1.0000  0.67125  0.74085  0.14096  0.0000
N4  N  1.0000  0.40368  0.39669  0.14475  0.0000
N5  N  1.0000  0.26423  0.52975  0.14371  0.0000
N6  N  1.0000  0.48063  0.74163  0.15592  0.0000
Hf1  Hf  1.0000  0.42362  0.56329  0.19538  0.0000
V1  V  1.0000  0.60887  0.55409  0.13364  0.0000
