data_CNHfZr
_audit_creation_method           'pos2cif.pl'
_cell_length_a               12.3170003891
_cell_length_b               12.3170003891315
_cell_length_c               20
_cell_angle_alpha            90
_cell_angle_beta             90
_cell_angle_gamma            120.010002136348
_symmetry_space_group_H-M        'P1'
_symmetry_Int_Tables_number      '1'
_symmetry_cell_setting           'triclinic'
loop_
_symmetry_equiv_pos_as_xyz
x,y,z

loop_
_atom_site_label
_atom_site_type_symbol
_atom_site_occupancy
_atom_site_fract_x
_atom_site_fract_y
_atom_site_fract_z
_atom_site_U_iso_or_equiv
C1  C  1.0000  -0.00094  0.19994  0.14031  0.0000
C2  C  1.0000  0.06585  0.13312  0.14118  0.0000
C3  C  1.0000  0.19824  0.19789  0.14132  0.0000
C4  C  1.0000  0.26484  0.13140  0.14008  0.0000
C5  C  1.0000  0.39806  0.19833  0.14003  0.0000
C6  C  1.0000  0.46577  0.13201  0.14157  0.0000
C7  C  1.0000  0.59852  0.20148  0.14289  0.0000
C8  C  1.0000  0.66624  0.13483  0.14156  0.0000
C9  C  1.0000  0.79938  0.20229  0.14042  0.0000
C10  C  1.0000  0.86639  0.13501  0.14083  0.0000
C11  C  1.0000  -0.00263  0.39947  0.13504  0.0000
C12  C  1.0000  0.06376  0.33193  0.13726  0.0000
C13  C  1.0000  0.19749  0.39775  0.13611  0.0000
C14  C  1.0000  0.26538  0.33082  0.14052  0.0000
C15  C  1.0000  0.46209  0.32954  0.14534  0.0000
C16  C  1.0000  0.66074  0.33510  0.14596  0.0000
C17  C  1.0000  0.79519  0.40367  0.13991  0.0000
C18  C  1.0000  0.86364  0.33546  0.13818  0.0000
C19  C  1.0000  0.00042  0.60083  0.13294  0.0000
C20  C  1.0000  0.06676  0.53314  0.13275  0.0000
C21  C  1.0000  0.20006  0.59617  0.13361  0.0000
C22  C  1.0000  0.86696  0.53779  0.13444  0.0000
C23  C  1.0000  0.00344  0.80189  0.13762  0.0000
C24  C  1.0000  0.06974  0.73437  0.13493  0.0000
C25  C  1.0000  0.20361  0.79842  0.13751  0.0000
C26  C  1.0000  0.27202  0.73028  0.13908  0.0000
C27  C  1.0000  0.40629  0.79855  0.14566  0.0000
C28  C  1.0000  0.60569  0.80466  0.14770  0.0000
C29  C  1.0000  0.80156  0.80278  0.14320  0.0000
C30  C  1.0000  0.86962  0.73594  0.13761  0.0000
C31  C  1.0000  0.00139  0.00064  0.14149  0.0000
C32  C  1.0000  0.06822  0.93396  0.14023  0.0000
C33  C  1.0000  0.20089  0.99891  0.13989  0.0000
C34  C  1.0000  0.26792  0.93156  0.13956  0.0000
C35  C  1.0000  0.40096  -0.00124  0.14099  0.0000
C36  C  1.0000  0.46864  0.93214  0.14298  0.0000
C37  C  1.0000  0.60152  0.00183  0.14238  0.0000
C38  C  1.0000  0.66939  0.93548  0.14199  0.0000
C39  C  1.0000  0.80250  0.00248  0.14182  0.0000
C40  C  1.0000  0.86891  0.93582  0.14286  0.0000
N1  N  1.0000  0.58954  0.39530  0.15540  0.0000
N2  N  1.0000  0.80509  0.60580  0.13516  0.0000
N3  N  1.0000  0.67001  0.73807  0.15083  0.0000
N4  N  1.0000  0.39738  0.39578  0.14617  0.0000
N5  N  1.0000  0.26223  0.52834  0.13369  0.0000
N6  N  1.0000  0.47743  0.73814  0.15564  0.0000
Hf1  Hf  1.0000  0.40862  0.55163  0.19456  0.0000
Zr1  Zr  1.0000  0.66223  0.58166  0.20071  0.0000
