data_CNHg
_audit_creation_method           'pos2cif.pl'
_cell_length_a               12.3170003891
_cell_length_b               12.3170003891315
_cell_length_c               20
_cell_angle_alpha            90
_cell_angle_beta             90
_cell_angle_gamma            120.010002136348
_symmetry_space_group_H-M        'P1'
_symmetry_Int_Tables_number      '1'
_symmetry_cell_setting           'triclinic'
loop_
_symmetry_equiv_pos_as_xyz
x,y,z

loop_
_atom_site_label
_atom_site_type_symbol
_atom_site_occupancy
_atom_site_fract_x
_atom_site_fract_y
_atom_site_fract_z
_atom_site_U_iso_or_equiv
C1  C  1.0000  0.99800  0.20203  0.13993  0.0000
C2  C  1.0000  0.06312  0.13349  0.13969  0.0000
C3  C  1.0000  0.19598  0.19799  0.13978  0.0000
C4  C  1.0000  0.26045  0.12777  0.13948  0.0000
C5  C  1.0000  0.39193  0.19048  0.13940  0.0000
C6  C  1.0000  0.46213  0.12895  0.13924  0.0000
C7  C  1.0000  0.59529  0.20113  0.13943  0.0000
C8  C  1.0000  0.66472  0.13803  0.13946  0.0000
C9  C  1.0000  0.79749  0.20492  0.13978  0.0000
C10  C  1.0000  0.86571  0.13875  0.13971  0.0000
C11  C  1.0000  0.99562  0.40128  0.14044  0.0000
C12  C  1.0000  0.06322  0.33408  0.14032  0.0000
C13  C  1.0000  0.19758  0.40206  0.14056  0.0000
C14  C  1.0000  0.26456  0.33049  0.14036  0.0000
C15  C  1.0000  0.45820  0.32134  0.13981  0.0000
C16  C  1.0000  0.65530  0.33438  0.13978  0.0000
C17  C  1.0000  0.79153  0.40469  0.14024  0.0000
C18  C  1.0000  0.86049  0.33822  0.14019  0.0000
C19  C  1.0000  -0.00230  0.60105  0.14049  0.0000
C20  C  1.0000  0.06431  0.53336  0.14063  0.0000
C21  C  1.0000  0.19973  0.59380  0.14065  0.0000
C22  C  1.0000  0.86235  0.54061  0.14040  0.0000
C23  C  1.0000  -0.00141  0.80030  0.13987  0.0000
C24  C  1.0000  0.06630  0.73314  0.14025  0.0000
C25  C  1.0000  0.20146  0.79621  0.14007  0.0000
C26  C  1.0000  0.27049  0.72979  0.14032  0.0000
C27  C  1.0000  0.40669  0.80025  0.14002  0.0000
C28  C  1.0000  0.60403  0.81356  0.13988  0.0000
C29  C  1.0000  0.79697  0.80354  0.13996  0.0000
C30  C  1.0000  0.86414  0.73222  0.14006  0.0000
C31  C  1.0000  -0.00146  0.00073  0.13954  0.0000
C32  C  1.0000  0.06385  0.93235  0.13956  0.0000
C33  C  1.0000  0.19622  0.99567  0.13946  0.0000
C34  C  1.0000  0.26445  0.92955  0.13955  0.0000
C35  C  1.0000  0.39722  0.99659  0.13932  0.0000
C36  C  1.0000  0.46665  0.93352  0.13949  0.0000
C37  C  1.0000  0.59979  0.00571  0.13939  0.0000
C38  C  1.0000  0.67010  0.94428  0.13942  0.0000
C39  C  1.0000  0.80150  0.00667  0.13950  0.0000
C40  C  1.0000  0.86568  0.93616  0.13960  0.0000
N1  N  1.0000  0.58336  0.39001  0.13992  0.0000
N2  N  1.0000  0.80116  0.60642  0.14045  0.0000
N3  N  1.0000  0.66923  0.74962  0.14022  0.0000
N4  N  1.0000  0.39229  0.38471  0.14063  0.0000
N5  N  1.0000  0.26079  0.52784  0.14079  0.0000
N6  N  1.0000  0.47883  0.74489  0.14032  0.0000
Hg1  Hg  1.0000  0.52865  0.56758  0.14223  0.0000
Hg2  Hg  1.0000  0.66463  0.55090  0.29232  0.0000
