data_CNHgIr
_audit_creation_method           'pos2cif.pl'
_cell_length_a               12.3170003891
_cell_length_b               12.3170003891315
_cell_length_c               20
_cell_angle_alpha            90
_cell_angle_beta             90
_cell_angle_gamma            120.010002136348
_symmetry_space_group_H-M        'P1'
_symmetry_Int_Tables_number      '1'
_symmetry_cell_setting           'triclinic'
loop_
_symmetry_equiv_pos_as_xyz
x,y,z

loop_
_atom_site_label
_atom_site_type_symbol
_atom_site_occupancy
_atom_site_fract_x
_atom_site_fract_y
_atom_site_fract_z
_atom_site_U_iso_or_equiv
C1  C  1.0000  0.00062  0.20327  0.13962  0.0000
C2  C  1.0000  0.06817  0.13701  0.13924  0.0000
C3  C  1.0000  0.20179  0.20221  0.13914  0.0000
C4  C  1.0000  0.26276  0.12896  0.13884  0.0000
C5  C  1.0000  0.39360  0.19012  0.13906  0.0000
C6  C  1.0000  0.46353  0.12717  0.13930  0.0000
C7  C  1.0000  0.59631  0.19783  0.13980  0.0000
C8  C  1.0000  0.66591  0.13457  0.13955  0.0000
C9  C  1.0000  0.79880  0.20412  0.13992  0.0000
C10  C  1.0000  0.86769  0.13877  0.13949  0.0000
C11  C  1.0000  0.99672  0.40142  0.14097  0.0000
C12  C  1.0000  0.06605  0.33555  0.14027  0.0000
C13  C  1.0000  0.20124  0.40516  0.14038  0.0000
C14  C  1.0000  0.27399  0.33718  0.13963  0.0000
C15  C  1.0000  0.45571  0.31998  0.13989  0.0000
C16  C  1.0000  0.65729  0.33101  0.14123  0.0000
C17  C  1.0000  0.79235  0.40430  0.14178  0.0000
C18  C  1.0000  0.86181  0.33778  0.14091  0.0000
C19  C  1.0000  -0.00451  0.60120  0.14155  0.0000
C20  C  1.0000  0.06292  0.53341  0.14136  0.0000
C21  C  1.0000  0.19841  0.59408  0.14133  0.0000
C22  C  1.0000  0.86009  0.53970  0.14213  0.0000
C23  C  1.0000  0.00160  0.80207  0.14030  0.0000
C24  C  1.0000  0.06758  0.73353  0.14085  0.0000
C25  C  1.0000  0.20270  0.79572  0.14044  0.0000
C26  C  1.0000  0.27116  0.72888  0.14096  0.0000
C27  C  1.0000  0.40892  0.79637  0.14056  0.0000
C28  C  1.0000  0.60377  0.80343  0.14039  0.0000
C29  C  1.0000  0.80133  0.80731  0.14050  0.0000
C30  C  1.0000  0.86953  0.73943  0.14095  0.0000
C31  C  1.0000  0.00269  0.00386  0.13929  0.0000
C32  C  1.0000  0.06702  0.93456  0.13948  0.0000
C33  C  1.0000  0.19874  0.99631  0.13917  0.0000
C34  C  1.0000  0.26637  0.92932  0.13957  0.0000
C35  C  1.0000  0.39928  0.99484  0.13936  0.0000
C36  C  1.0000  0.46855  0.93048  0.13961  0.0000
C37  C  1.0000  0.60138  0.00093  0.13937  0.0000
C38  C  1.0000  0.67072  0.93735  0.13945  0.0000
C39  C  1.0000  0.80289  0.00592  0.13931  0.0000
C40  C  1.0000  0.86950  0.93922  0.13953  0.0000
N1  N  1.0000  0.58394  0.38553  0.14224  0.0000
N2  N  1.0000  0.79983  0.61136  0.14233  0.0000
N3  N  1.0000  0.67212  0.73960  0.14129  0.0000
N4  N  1.0000  0.40262  0.39436  0.13968  0.0000
N5  N  1.0000  0.26090  0.52963  0.14126  0.0000
N6  N  1.0000  0.47819  0.73779  0.14128  0.0000
Hg1  Hg  1.0000  0.48407  0.57345  0.27447  0.0000
Ir1  Ir  1.0000  0.62033  0.55509  0.14489  0.0000
