data_CNHgMn
_audit_creation_method           'pos2cif.pl'
_cell_length_a               12.3170003891
_cell_length_b               12.3170003891315
_cell_length_c               20
_cell_angle_alpha            90
_cell_angle_beta             90
_cell_angle_gamma            120.010002136348
_symmetry_space_group_H-M        'P1'
_symmetry_Int_Tables_number      '1'
_symmetry_cell_setting           'triclinic'
loop_
_symmetry_equiv_pos_as_xyz
x,y,z

loop_
_atom_site_label
_atom_site_type_symbol
_atom_site_occupancy
_atom_site_fract_x
_atom_site_fract_y
_atom_site_fract_z
_atom_site_U_iso_or_equiv
C1  C  1.0000  0.00136  0.20212  0.13976  0.0000
C2  C  1.0000  0.06803  0.13499  0.13954  0.0000
C3  C  1.0000  0.20152  0.20063  0.13879  0.0000
C4  C  1.0000  0.26424  0.12882  0.13865  0.0000
C5  C  1.0000  0.39544  0.19132  0.13814  0.0000
C6  C  1.0000  0.46537  0.12882  0.13908  0.0000
C7  C  1.0000  0.59853  0.20037  0.13943  0.0000
C8  C  1.0000  0.66748  0.13619  0.13984  0.0000
C9  C  1.0000  0.80032  0.20405  0.14005  0.0000
C10  C  1.0000  0.86856  0.13781  0.13999  0.0000
C11  C  1.0000  -0.00165  0.40088  0.14054  0.0000
C12  C  1.0000  0.06672  0.33428  0.13988  0.0000
C13  C  1.0000  0.20177  0.40334  0.13976  0.0000
C14  C  1.0000  0.27216  0.33439  0.13852  0.0000
C15  C  1.0000  0.45915  0.32236  0.13781  0.0000
C16  C  1.0000  0.65903  0.33399  0.13985  0.0000
C17  C  1.0000  0.79441  0.40442  0.14082  0.0000
C18  C  1.0000  0.86341  0.33746  0.14050  0.0000
C19  C  1.0000  -0.00052  0.60095  0.14133  0.0000
C20  C  1.0000  0.06601  0.53307  0.14097  0.0000
C21  C  1.0000  0.20131  0.59367  0.14127  0.0000
C22  C  1.0000  0.86405  0.54018  0.14161  0.0000
C23  C  1.0000  0.00235  0.80091  0.14099  0.0000
C24  C  1.0000  0.06940  0.73324  0.14125  0.0000
C25  C  1.0000  0.20460  0.79619  0.14109  0.0000
C26  C  1.0000  0.27312  0.72920  0.14142  0.0000
C27  C  1.0000  0.41006  0.79789  0.14118  0.0000
C28  C  1.0000  0.60530  0.80642  0.14091  0.0000
C29  C  1.0000  0.80083  0.80428  0.14126  0.0000
C30  C  1.0000  0.86858  0.73443  0.14159  0.0000
C31  C  1.0000  0.00288  0.00195  0.14009  0.0000
C32  C  1.0000  0.06781  0.93322  0.14026  0.0000
C33  C  1.0000  0.20002  0.99634  0.13973  0.0000
C34  C  1.0000  0.26794  0.92977  0.14031  0.0000
C35  C  1.0000  0.40086  -0.00382  0.13997  0.0000
C36  C  1.0000  0.46977  0.93168  0.14041  0.0000
C37  C  1.0000  0.60281  0.00291  0.14009  0.0000
C38  C  1.0000  0.67195  0.93947  0.14024  0.0000
C39  C  1.0000  0.80395  0.00527  0.14018  0.0000
C40  C  1.0000  0.86962  0.93664  0.14051  0.0000
N1  N  1.0000  0.58657  0.39017  0.13936  0.0000
N2  N  1.0000  0.80303  0.60750  0.14238  0.0000
N3  N  1.0000  0.67180  0.74225  0.14164  0.0000
N4  N  1.0000  0.40103  0.39257  0.13754  0.0000
N5  N  1.0000  0.26305  0.52852  0.14116  0.0000
N6  N  1.0000  0.47994  0.73953  0.14169  0.0000
Hg1  Hg  1.0000  0.45641  0.57324  0.27356  0.0000
Mn1  Mn  1.0000  0.58664  0.55730  0.14699  0.0000
