data_CNHgOs
_audit_creation_method           'pos2cif.pl'
_cell_length_a               12.3170003891
_cell_length_b               12.3170003891315
_cell_length_c               20
_cell_angle_alpha            90
_cell_angle_beta             90
_cell_angle_gamma            120.010002136348
_symmetry_space_group_H-M        'P1'
_symmetry_Int_Tables_number      '1'
_symmetry_cell_setting           'triclinic'
loop_
_symmetry_equiv_pos_as_xyz
x,y,z

loop_
_atom_site_label
_atom_site_type_symbol
_atom_site_occupancy
_atom_site_fract_x
_atom_site_fract_y
_atom_site_fract_z
_atom_site_U_iso_or_equiv
C1  C  1.0000  0.00049  0.20326  0.13786  0.0000
C2  C  1.0000  0.06773  0.13674  0.13621  0.0000
C3  C  1.0000  0.20103  0.20163  0.13595  0.0000
C4  C  1.0000  0.26234  0.12868  0.13445  0.0000
C5  C  1.0000  0.39327  0.18987  0.13476  0.0000
C6  C  1.0000  0.46338  0.12710  0.13541  0.0000
C7  C  1.0000  0.59642  0.19827  0.13747  0.0000
C8  C  1.0000  0.66585  0.13476  0.13740  0.0000
C9  C  1.0000  0.79869  0.20425  0.13886  0.0000
C10  C  1.0000  0.86753  0.13868  0.13772  0.0000
C11  C  1.0000  0.99665  0.40146  0.14194  0.0000
C12  C  1.0000  0.06589  0.33552  0.14003  0.0000
C13  C  1.0000  0.20087  0.40487  0.14083  0.0000
C14  C  1.0000  0.27240  0.33613  0.13896  0.0000
C15  C  1.0000  0.45428  0.31908  0.13918  0.0000
C16  C  1.0000  0.65753  0.33083  0.14229  0.0000
C17  C  1.0000  0.79225  0.40431  0.14447  0.0000
C18  C  1.0000  0.86191  0.33764  0.14170  0.0000
C19  C  1.0000  -0.00469  0.60112  0.14407  0.0000
C20  C  1.0000  0.06299  0.53344  0.14318  0.0000
C21  C  1.0000  0.19857  0.59413  0.14307  0.0000
C22  C  1.0000  0.86031  0.53945  0.14651  0.0000
C23  C  1.0000  0.00156  0.80211  0.13976  0.0000
C24  C  1.0000  0.06763  0.73362  0.14170  0.0000
C25  C  1.0000  0.20246  0.79567  0.14034  0.0000
C26  C  1.0000  0.27117  0.72892  0.14236  0.0000
C27  C  1.0000  0.40881  0.79672  0.14174  0.0000
C28  C  1.0000  0.60398  0.80417  0.14193  0.0000
C29  C  1.0000  0.80241  0.80805  0.14131  0.0000
C30  C  1.0000  0.87003  0.74057  0.14268  0.0000
C31  C  1.0000  0.00255  0.00375  0.13627  0.0000
C32  C  1.0000  0.06686  0.93445  0.13660  0.0000
C33  C  1.0000  0.19850  -0.00389  0.13543  0.0000
C34  C  1.0000  0.26615  0.92924  0.13700  0.0000
C35  C  1.0000  0.39916  0.99504  0.13628  0.0000
C36  C  1.0000  0.46847  0.93051  0.13811  0.0000
C37  C  1.0000  0.60128  0.00107  0.13739  0.0000
C38  C  1.0000  0.67065  0.93752  0.13816  0.0000
C39  C  1.0000  0.80299  0.00614  0.13744  0.0000
C40  C  1.0000  0.86970  0.93964  0.13774  0.0000
N1  N  1.0000  0.58361  0.38618  0.14669  0.0000
N2  N  1.0000  0.79843  0.61143  0.14893  0.0000
N3  N  1.0000  0.67271  0.74001  0.14519  0.0000
N4  N  1.0000  0.40077  0.39239  0.14118  0.0000
N5  N  1.0000  0.26103  0.52950  0.14282  0.0000
N6  N  1.0000  0.47869  0.73857  0.14478  0.0000
Hg1  Hg  1.0000  0.49177  0.57373  0.27017  0.0000
Os1  Os  1.0000  0.61995  0.55482  0.15760  0.0000
