data_CNHgRe
_audit_creation_method           'pos2cif.pl'
_cell_length_a               12.3170003891
_cell_length_b               12.3170003891315
_cell_length_c               20
_cell_angle_alpha            90
_cell_angle_beta             90
_cell_angle_gamma            120.010002136348
_symmetry_space_group_H-M        'P1'
_symmetry_Int_Tables_number      '1'
_symmetry_cell_setting           'triclinic'
loop_
_symmetry_equiv_pos_as_xyz
x,y,z

loop_
_atom_site_label
_atom_site_type_symbol
_atom_site_occupancy
_atom_site_fract_x
_atom_site_fract_y
_atom_site_fract_z
_atom_site_U_iso_or_equiv
C1  C  1.0000  0.00111  0.20355  0.13912  0.0000
C2  C  1.0000  0.06838  0.13724  0.13873  0.0000
C3  C  1.0000  0.20199  0.20264  0.13884  0.0000
C4  C  1.0000  0.26237  0.12840  0.13847  0.0000
C5  C  1.0000  0.39321  0.18885  0.13877  0.0000
C6  C  1.0000  0.46340  0.12643  0.13914  0.0000
C7  C  1.0000  0.59666  0.19754  0.13973  0.0000
C8  C  1.0000  0.66617  0.13461  0.13915  0.0000
C9  C  1.0000  0.79918  0.20417  0.13951  0.0000
C10  C  1.0000  0.86811  0.13891  0.13879  0.0000
C11  C  1.0000  0.99702  0.40138  0.14112  0.0000
C12  C  1.0000  0.06647  0.33560  0.14019  0.0000
C13  C  1.0000  0.20169  0.40501  0.14077  0.0000
C14  C  1.0000  0.27310  0.33697  0.13963  0.0000
C15  C  1.0000  0.45558  0.31809  0.13990  0.0000
C16  C  1.0000  0.65814  0.32981  0.14165  0.0000
C17  C  1.0000  0.79245  0.40370  0.14213  0.0000
C18  C  1.0000  0.86233  0.33740  0.14092  0.0000
C19  C  1.0000  -0.00537  0.60064  0.14210  0.0000
C20  C  1.0000  0.06267  0.53333  0.14190  0.0000
C21  C  1.0000  0.19853  0.59411  0.14228  0.0000
C22  C  1.0000  0.85908  0.53880  0.14274  0.0000
C23  C  1.0000  0.00042  0.80156  0.14033  0.0000
C24  C  1.0000  0.06671  0.73318  0.14134  0.0000
C25  C  1.0000  0.20179  0.79546  0.14099  0.0000
C26  C  1.0000  0.27089  0.72891  0.14185  0.0000
C27  C  1.0000  0.40825  0.79667  0.14110  0.0000
C28  C  1.0000  0.60402  0.80615  0.13997  0.0000
C29  C  1.0000  0.80236  0.80827  0.13971  0.0000
C30  C  1.0000  0.86775  0.73880  0.14093  0.0000
C31  C  1.0000  0.00284  0.00414  0.13863  0.0000
C32  C  1.0000  0.06620  0.93390  0.13917  0.0000
C33  C  1.0000  0.19817  0.99602  0.13896  0.0000
C34  C  1.0000  0.26570  0.92900  0.13966  0.0000
C35  C  1.0000  0.39883  0.99450  0.13929  0.0000
C36  C  1.0000  0.46816  0.93023  0.13961  0.0000
C37  C  1.0000  0.60127  0.00145  0.13894  0.0000
C38  C  1.0000  0.67106  0.93889  0.13865  0.0000
C39  C  1.0000  0.80347  0.00671  0.13833  0.0000
C40  C  1.0000  0.87007  0.93997  0.13857  0.0000
N1  N  1.0000  0.58424  0.38425  0.14353  0.0000
N2  N  1.0000  0.79673  0.60938  0.14314  0.0000
N3  N  1.0000  0.67239  0.74280  0.14067  0.0000
N4  N  1.0000  0.40337  0.39338  0.13958  0.0000
N5  N  1.0000  0.26133  0.52996  0.14249  0.0000
N6  N  1.0000  0.47876  0.73875  0.14189  0.0000
Hg1  Hg  1.0000  0.50322  0.57773  0.27334  0.0000
Re1  Re  1.0000  0.60680  0.55389  0.14568  0.0000
