data_CNHgTa
_audit_creation_method           'pos2cif.pl'
_cell_length_a               12.3170003891
_cell_length_b               12.3170003891315
_cell_length_c               20
_cell_angle_alpha            90
_cell_angle_beta             90
_cell_angle_gamma            120.010002136348
_symmetry_space_group_H-M        'P1'
_symmetry_Int_Tables_number      '1'
_symmetry_cell_setting           'triclinic'
loop_
_symmetry_equiv_pos_as_xyz
x,y,z

loop_
_atom_site_label
_atom_site_type_symbol
_atom_site_occupancy
_atom_site_fract_x
_atom_site_fract_y
_atom_site_fract_z
_atom_site_U_iso_or_equiv
C1  C  1.0000  0.00220  0.20322  0.13960  0.0000
C2  C  1.0000  0.06923  0.13661  0.13937  0.0000
C3  C  1.0000  0.20247  0.20206  0.13897  0.0000
C4  C  1.0000  0.26402  0.12903  0.13868  0.0000
C5  C  1.0000  0.39576  0.19112  0.13830  0.0000
C6  C  1.0000  0.46518  0.12757  0.13861  0.0000
C7  C  1.0000  0.59828  0.19908  0.13877  0.0000
C8  C  1.0000  0.66738  0.13512  0.13911  0.0000
C9  C  1.0000  0.80026  0.20398  0.13955  0.0000
C10  C  1.0000  0.86912  0.13837  0.13940  0.0000
C11  C  1.0000  -0.00207  0.40115  0.14104  0.0000
C12  C  1.0000  0.06712  0.33505  0.14031  0.0000
C13  C  1.0000  0.20191  0.40398  0.14065  0.0000
C14  C  1.0000  0.27160  0.33584  0.13920  0.0000
C15  C  1.0000  0.45878  0.32065  0.13778  0.0000
C16  C  1.0000  0.66034  0.33166  0.13943  0.0000
C17  C  1.0000  0.79419  0.40416  0.14116  0.0000
C18  C  1.0000  0.86367  0.33727  0.14058  0.0000
C19  C  1.0000  -0.00468  0.60033  0.14217  0.0000
C20  C  1.0000  0.06361  0.53302  0.14168  0.0000
C21  C  1.0000  0.19959  0.59372  0.14194  0.0000
C22  C  1.0000  0.85970  0.53876  0.14273  0.0000
C23  C  1.0000  0.00092  0.80071  0.14125  0.0000
C24  C  1.0000  0.06790  0.73321  0.14172  0.0000
C25  C  1.0000  0.20298  0.79571  0.14107  0.0000
C26  C  1.0000  0.27221  0.72860  0.14159  0.0000
C27  C  1.0000  0.40914  0.79600  0.14093  0.0000
C28  C  1.0000  0.60654  0.80726  0.14049  0.0000
C29  C  1.0000  0.80465  0.80748  0.14127  0.0000
C30  C  1.0000  0.86743  0.73674  0.14235  0.0000
C31  C  1.0000  0.00393  0.00348  0.13972  0.0000
C32  C  1.0000  0.06727  0.93344  0.14005  0.0000
C33  C  1.0000  0.19978  0.99664  0.13944  0.0000
C34  C  1.0000  0.26728  0.92929  0.13986  0.0000
C35  C  1.0000  0.40051  0.99515  0.13926  0.0000
C36  C  1.0000  0.46952  0.93009  0.13967  0.0000
C37  C  1.0000  0.60256  0.00180  0.13927  0.0000
C38  C  1.0000  0.67269  0.93934  0.13944  0.0000
C39  C  1.0000  0.80506  0.00646  0.13943  0.0000
C40  C  1.0000  0.87137  0.93914  0.13999  0.0000
N1  N  1.0000  0.58868  0.38982  0.13930  0.0000
N2  N  1.0000  0.79415  0.60670  0.14431  0.0000
N3  N  1.0000  0.67421  0.74277  0.14196  0.0000
N4  N  1.0000  0.40299  0.39459  0.13792  0.0000
N5  N  1.0000  0.26235  0.52949  0.14217  0.0000
N6  N  1.0000  0.48130  0.73823  0.14164  0.0000
Hg1  Hg  1.0000  0.46779  0.57583  0.27108  0.0000
Ta1  Ta  1.0000  0.58616  0.55139  0.14771  0.0000
