data_CNHgV
_audit_creation_method           'pos2cif.pl'
_cell_length_a               12.3170003891
_cell_length_b               12.3170003891315
_cell_length_c               20
_cell_angle_alpha            90
_cell_angle_beta             90
_cell_angle_gamma            120.010002136348
_symmetry_space_group_H-M        'P1'
_symmetry_Int_Tables_number      '1'
_symmetry_cell_setting           'triclinic'
loop_
_symmetry_equiv_pos_as_xyz
x,y,z

loop_
_atom_site_label
_atom_site_type_symbol
_atom_site_occupancy
_atom_site_fract_x
_atom_site_fract_y
_atom_site_fract_z
_atom_site_U_iso_or_equiv
C1  C  1.0000  0.00130  0.20260  0.13883  0.0000
C2  C  1.0000  0.06844  0.13607  0.13857  0.0000
C3  C  1.0000  0.20225  0.20221  0.13786  0.0000
C4  C  1.0000  0.26402  0.12961  0.13733  0.0000
C5  C  1.0000  0.39531  0.19206  0.13611  0.0000
C6  C  1.0000  0.46468  0.12863  0.13646  0.0000
C7  C  1.0000  0.59800  0.19906  0.13681  0.0000
C8  C  1.0000  0.66695  0.13509  0.13758  0.0000
C9  C  1.0000  0.79987  0.20367  0.13855  0.0000
C10  C  1.0000  0.86831  0.13771  0.13851  0.0000
C11  C  1.0000  -0.00221  0.40091  0.14121  0.0000
C12  C  1.0000  0.06686  0.33489  0.13993  0.0000
C13  C  1.0000  0.20203  0.40447  0.14074  0.0000
C14  C  1.0000  0.27379  0.33671  0.13855  0.0000
C15  C  1.0000  0.45891  0.32322  0.13617  0.0000
C16  C  1.0000  0.65950  0.33201  0.13838  0.0000
C17  C  1.0000  0.79385  0.40369  0.14153  0.0000
C18  C  1.0000  0.86323  0.33697  0.14035  0.0000
C19  C  1.0000  -0.00339  0.60060  0.14333  0.0000
C20  C  1.0000  0.06402  0.53310  0.14260  0.0000
C21  C  1.0000  0.19952  0.59404  0.14343  0.0000
C22  C  1.0000  0.86117  0.53897  0.14437  0.0000
C23  C  1.0000  0.00064  0.80087  0.14190  0.0000
C24  C  1.0000  0.06770  0.73326  0.14277  0.0000
C25  C  1.0000  0.20286  0.79617  0.14197  0.0000
C26  C  1.0000  0.27163  0.72933  0.14307  0.0000
C27  C  1.0000  0.40886  0.79758  0.14190  0.0000
C28  C  1.0000  0.60394  0.80459  0.14107  0.0000
C29  C  1.0000  0.80030  0.80476  0.14207  0.0000
C30  C  1.0000  0.86722  0.73587  0.14361  0.0000
C31  C  1.0000  0.00257  0.00271  0.13945  0.0000
C32  C  1.0000  0.06689  0.93354  0.14009  0.0000
C33  C  1.0000  0.19923  0.99670  0.13889  0.0000
C34  C  1.0000  0.26682  0.92988  0.13958  0.0000
C35  C  1.0000  0.39993  0.99610  0.13807  0.0000
C36  C  1.0000  0.46886  0.93134  0.13902  0.0000
C37  C  1.0000  0.60193  0.00167  0.13813  0.0000
C38  C  1.0000  0.67099  0.93797  0.13879  0.0000
C39  C  1.0000  0.80330  0.00509  0.13875  0.0000
C40  C  1.0000  0.86923  0.93727  0.13994  0.0000
N1  N  1.0000  0.58777  0.38899  0.13791  0.0000
N2  N  1.0000  0.79842  0.60696  0.14718  0.0000
N3  N  1.0000  0.67034  0.73950  0.14297  0.0000
N4  N  1.0000  0.40376  0.39568  0.13780  0.0000
N5  N  1.0000  0.26193  0.52951  0.14359  0.0000
N6  N  1.0000  0.47852  0.73900  0.14356  0.0000
Hg1  Hg  1.0000  0.47078  0.57797  0.26689  0.0000
V1  V  1.0000  0.60622  0.55256  0.15580  0.0000
