data_CNHgW
_audit_creation_method           'pos2cif.pl'
_cell_length_a               12.3170003891
_cell_length_b               12.3170003891315
_cell_length_c               20
_cell_angle_alpha            90
_cell_angle_beta             90
_cell_angle_gamma            120.010002136348
_symmetry_space_group_H-M        'P1'
_symmetry_Int_Tables_number      '1'
_symmetry_cell_setting           'triclinic'
loop_
_symmetry_equiv_pos_as_xyz
x,y,z

loop_
_atom_site_label
_atom_site_type_symbol
_atom_site_occupancy
_atom_site_fract_x
_atom_site_fract_y
_atom_site_fract_z
_atom_site_U_iso_or_equiv
C1  C  1.0000  0.00196  0.20319  0.13815  0.0000
C2  C  1.0000  0.06913  0.13686  0.13734  0.0000
C3  C  1.0000  0.20284  0.20278  0.13719  0.0000
C4  C  1.0000  0.26355  0.12893  0.13583  0.0000
C5  C  1.0000  0.39472  0.19015  0.13449  0.0000
C6  C  1.0000  0.46459  0.12734  0.13455  0.0000
C7  C  1.0000  0.59802  0.19803  0.13536  0.0000
C8  C  1.0000  0.66723  0.13454  0.13589  0.0000
C9  C  1.0000  0.80014  0.20377  0.13765  0.0000
C10  C  1.0000  0.86881  0.13812  0.13734  0.0000
C11  C  1.0000  -0.00204  0.40112  0.14200  0.0000
C12  C  1.0000  0.06736  0.33524  0.14036  0.0000
C13  C  1.0000  0.20253  0.40476  0.14181  0.0000
C14  C  1.0000  0.27384  0.33715  0.13953  0.0000
C15  C  1.0000  0.45770  0.31990  0.13644  0.0000
C16  C  1.0000  0.65984  0.33023  0.13878  0.0000
C17  C  1.0000  0.79377  0.40349  0.14264  0.0000
C18  C  1.0000  0.86353  0.33704  0.14069  0.0000
C19  C  1.0000  -0.00450  0.60050  0.14468  0.0000
C20  C  1.0000  0.06353  0.53314  0.14380  0.0000
C21  C  1.0000  0.19934  0.59413  0.14450  0.0000
C22  C  1.0000  0.86006  0.53857  0.14620  0.0000
C23  C  1.0000  0.00075  0.80118  0.14169  0.0000
C24  C  1.0000  0.06740  0.73331  0.14320  0.0000
C25  C  1.0000  0.20241  0.79587  0.14181  0.0000
C26  C  1.0000  0.27149  0.72923  0.14352  0.0000
C27  C  1.0000  0.40862  0.79736  0.14193  0.0000
C28  C  1.0000  0.60414  0.80563  0.14138  0.0000
C29  C  1.0000  0.80262  0.80685  0.14234  0.0000
C30  C  1.0000  0.86775  0.73762  0.14421  0.0000
C31  C  1.0000  0.00336  0.00351  0.13781  0.0000
C32  C  1.0000  0.06687  0.93368  0.13875  0.0000
C33  C  1.0000  0.19913  0.99646  0.13728  0.0000
C34  C  1.0000  0.26664  0.92943  0.13834  0.0000
C35  C  1.0000  0.39977  0.99521  0.13640  0.0000
C36  C  1.0000  0.46886  0.93070  0.13776  0.0000
C37  C  1.0000  0.60204  0.00130  0.13635  0.0000
C38  C  1.0000  0.67153  0.93829  0.13734  0.0000
C39  C  1.0000  0.80401  0.00587  0.13724  0.0000
C40  C  1.0000  0.87030  0.93857  0.13865  0.0000
N1  N  1.0000  0.58663  0.38570  0.14041  0.0000
N2  N  1.0000  0.79670  0.60790  0.14937  0.0000
N3  N  1.0000  0.67185  0.74114  0.14531  0.0000
N4  N  1.0000  0.40491  0.39465  0.13993  0.0000
N5  N  1.0000  0.26212  0.52999  0.14488  0.0000
N6  N  1.0000  0.47923  0.73948  0.14466  0.0000
Hg1  Hg  1.0000  0.46946  0.58122  0.26792  0.0000
W1  W  1.0000  0.60248  0.55200  0.15825  0.0000
