data_CNIr
_audit_creation_method           'pos2cif.pl'
_cell_length_a               12.3170003891
_cell_length_b               12.3170003891315
_cell_length_c               20
_cell_angle_alpha            90
_cell_angle_beta             90
_cell_angle_gamma            120.010002136348
_symmetry_space_group_H-M        'P1'
_symmetry_Int_Tables_number      '1'
_symmetry_cell_setting           'triclinic'
loop_
_symmetry_equiv_pos_as_xyz
x,y,z

loop_
_atom_site_label
_atom_site_type_symbol
_atom_site_occupancy
_atom_site_fract_x
_atom_site_fract_y
_atom_site_fract_z
_atom_site_U_iso_or_equiv
C1  C  1.0000  -0.00160  0.20014  0.14203  0.0000
C2  C  1.0000  0.06449  0.13226  0.14005  0.0000
C3  C  1.0000  0.19538  0.19377  0.13244  0.0000
C4  C  1.0000  0.26220  0.12648  0.13241  0.0000
C5  C  1.0000  0.39374  0.19248  0.13177  0.0000
C6  C  1.0000  0.46409  0.12989  0.13792  0.0000
C7  C  1.0000  0.59685  0.20200  0.14114  0.0000
C8  C  1.0000  0.66618  0.13729  0.14568  0.0000
C9  C  1.0000  0.79888  0.20516  0.14638  0.0000
C10  C  1.0000  0.86716  0.13866  0.14790  0.0000
C11  C  1.0000  0.99602  0.40045  0.14148  0.0000
C12  C  1.0000  0.06208  0.33160  0.13813  0.0000
C13  C  1.0000  0.19319  0.39329  0.13126  0.0000
C14  C  1.0000  0.25961  0.32396  0.12674  0.0000
C15  C  1.0000  0.45445  0.32408  0.13041  0.0000
C16  C  1.0000  0.65637  0.33559  0.14299  0.0000
C17  C  1.0000  0.79237  0.40605  0.14600  0.0000
C18  C  1.0000  0.86186  0.33864  0.14459  0.0000
C19  C  1.0000  0.00028  0.60104  0.14511  0.0000
C20  C  1.0000  0.06707  0.53276  0.14108  0.0000
C21  C  1.0000  0.20288  0.59314  0.13769  0.0000
C22  C  1.0000  0.86450  0.54066  0.14865  0.0000
C23  C  1.0000  0.00527  0.80217  0.14797  0.0000
C24  C  1.0000  0.07134  0.73334  0.14461  0.0000
C25  C  1.0000  0.20550  0.79515  0.14149  0.0000
C26  C  1.0000  0.27502  0.72776  0.14030  0.0000
C27  C  1.0000  0.41103  0.79823  0.14352  0.0000
C28  C  1.0000  0.61297  0.80975  0.15627  0.0000
C29  C  1.0000  0.80780  0.80986  0.15974  0.0000
C30  C  1.0000  0.87419  0.74050  0.15515  0.0000
C31  C  1.0000  0.00282  0.00149  0.14583  0.0000
C32  C  1.0000  0.06891  0.93360  0.14387  0.0000
C33  C  1.0000  0.20018  0.99510  0.13808  0.0000
C34  C  1.0000  0.26849  0.92863  0.13970  0.0000
C35  C  1.0000  0.40119  0.99650  0.14068  0.0000
C36  C  1.0000  0.47053  0.93181  0.14536  0.0000
C37  C  1.0000  0.60329  0.00392  0.14858  0.0000
C38  C  1.0000  0.67366  0.94135  0.15473  0.0000
C39  C  1.0000  0.80518  0.00733  0.15378  0.0000
C40  C  1.0000  0.87197  0.94001  0.15372  0.0000
N1  N  1.0000  0.58097  0.39161  0.14353  0.0000
N2  N  1.0000  0.80653  0.61235  0.15547  0.0000
N3  N  1.0000  0.67911  0.74666  0.16567  0.0000
N4  N  1.0000  0.38831  0.38718  0.12106  0.0000
N5  N  1.0000  0.26087  0.52144  0.13109  0.0000
N6  N  1.0000  0.48644  0.74222  0.14315  0.0000
Ir1  Ir  1.0000  0.44215  0.56922  0.12216  0.0000
Ir2  Ir  1.0000  0.62526  0.56460  0.16460  0.0000
