data_CNIrMn
_audit_creation_method           'pos2cif.pl'
_cell_length_a               12.3170003891
_cell_length_b               12.3170003891315
_cell_length_c               20
_cell_angle_alpha            90
_cell_angle_beta             90
_cell_angle_gamma            120.010002136348
_symmetry_space_group_H-M        'P1'
_symmetry_Int_Tables_number      '1'
_symmetry_cell_setting           'triclinic'
loop_
_symmetry_equiv_pos_as_xyz
x,y,z

loop_
_atom_site_label
_atom_site_type_symbol
_atom_site_occupancy
_atom_site_fract_x
_atom_site_fract_y
_atom_site_fract_z
_atom_site_U_iso_or_equiv
C1  C  1.0000  -0.00127  0.19990  0.14253  0.0000
C2  C  1.0000  0.06455  0.13193  0.14070  0.0000
C3  C  1.0000  0.19584  0.19410  0.13579  0.0000
C4  C  1.0000  0.26275  0.12702  0.13593  0.0000
C5  C  1.0000  0.39440  0.19342  0.13603  0.0000
C6  C  1.0000  0.46444  0.13058  0.14031  0.0000
C7  C  1.0000  0.59751  0.20277  0.14273  0.0000
C8  C  1.0000  0.66654  0.13770  0.14547  0.0000
C9  C  1.0000  0.79918  0.20481  0.14605  0.0000
C10  C  1.0000  0.86716  0.13792  0.14642  0.0000
C11  C  1.0000  0.99639  0.40016  0.14306  0.0000
C12  C  1.0000  0.06251  0.33133  0.14042  0.0000
C13  C  1.0000  0.19400  0.39354  0.13572  0.0000
C14  C  1.0000  0.26059  0.32456  0.13226  0.0000
C15  C  1.0000  0.45595  0.32530  0.13458  0.0000
C16  C  1.0000  0.65731  0.33637  0.14387  0.0000
C17  C  1.0000  0.79307  0.40571  0.14615  0.0000
C18  C  1.0000  0.86236  0.33812  0.14527  0.0000
C19  C  1.0000  0.00004  0.60066  0.14488  0.0000
C20  C  1.0000  0.06693  0.53253  0.14254  0.0000
C21  C  1.0000  0.20275  0.59317  0.14009  0.0000
C22  C  1.0000  0.86435  0.54030  0.14769  0.0000
C23  C  1.0000  0.00414  0.80129  0.14517  0.0000
C24  C  1.0000  0.07088  0.73319  0.14383  0.0000
C25  C  1.0000  0.20507  0.79534  0.14184  0.0000
C26  C  1.0000  0.27454  0.72791  0.14126  0.0000
C27  C  1.0000  0.41066  0.79914  0.14295  0.0000
C28  C  1.0000  0.61306  0.81078  0.15083  0.0000
C29  C  1.0000  0.80599  0.80742  0.15224  0.0000
C30  C  1.0000  0.87200  0.73821  0.14988  0.0000
C31  C  1.0000  0.00225  0.00057  0.14381  0.0000
C32  C  1.0000  0.06831  0.93286  0.14236  0.0000
C33  C  1.0000  0.20025  0.99531  0.13927  0.0000
C34  C  1.0000  0.26838  0.92900  0.14062  0.0000
C35  C  1.0000  0.40122  0.99728  0.14171  0.0000
C36  C  1.0000  0.47051  0.93256  0.14453  0.0000
C37  C  1.0000  0.60324  0.00435  0.14683  0.0000
C38  C  1.0000  0.67365  0.94156  0.15056  0.0000
C39  C  1.0000  0.80515  0.00667  0.14969  0.0000
C40  C  1.0000  0.87104  0.93836  0.14881  0.0000
N1  N  1.0000  0.58394  0.39419  0.14277  0.0000
N2  N  1.0000  0.80424  0.60985  0.15209  0.0000
N3  N  1.0000  0.67680  0.74459  0.15612  0.0000
N4  N  1.0000  0.38978  0.38775  0.12788  0.0000
N5  N  1.0000  0.26087  0.52157  0.13584  0.0000
N6  N  1.0000  0.48597  0.74377  0.14212  0.0000
Ir1  Ir  1.0000  0.44516  0.56995  0.12923  0.0000
Mn1  Mn  1.0000  0.62259  0.56576  0.16123  0.0000
