data_CNIrNb
_audit_creation_method           'pos2cif.pl'
_cell_length_a               12.3170003891
_cell_length_b               12.3170003891315
_cell_length_c               20
_cell_angle_alpha            90
_cell_angle_beta             90
_cell_angle_gamma            120.010002136348
_symmetry_space_group_H-M        'P1'
_symmetry_Int_Tables_number      '1'
_symmetry_cell_setting           'triclinic'
loop_
_symmetry_equiv_pos_as_xyz
x,y,z

loop_
_atom_site_label
_atom_site_type_symbol
_atom_site_occupancy
_atom_site_fract_x
_atom_site_fract_y
_atom_site_fract_z
_atom_site_U_iso_or_equiv
C1  C  1.0000  -0.00155  0.19995  0.13055  0.0000
C2  C  1.0000  0.06404  0.13174  0.12704  0.0000
C3  C  1.0000  0.19578  0.19424  0.12418  0.0000
C4  C  1.0000  0.26281  0.12677  0.12589  0.0000
C5  C  1.0000  0.39458  0.19257  0.13005  0.0000
C6  C  1.0000  0.46436  0.12959  0.13629  0.0000
C7  C  1.0000  0.59760  0.20215  0.14056  0.0000
C8  C  1.0000  0.66673  0.13719  0.14203  0.0000
C9  C  1.0000  0.79908  0.20474  0.14041  0.0000
C10  C  1.0000  0.86723  0.13788  0.13779  0.0000
C11  C  1.0000  0.99594  0.40020  0.13915  0.0000
C12  C  1.0000  0.06219  0.33156  0.13214  0.0000
C13  C  1.0000  0.19382  0.39434  0.13172  0.0000
C14  C  1.0000  0.26001  0.32474  0.12728  0.0000
C15  C  1.0000  0.45540  0.32390  0.13518  0.0000
C16  C  1.0000  0.65759  0.33475  0.14553  0.0000
C17  C  1.0000  0.79302  0.40560  0.14763  0.0000
C18  C  1.0000  0.86222  0.33801  0.14184  0.0000
C19  C  1.0000  -0.00099  0.60062  0.14728  0.0000
C20  C  1.0000  0.06563  0.53238  0.14305  0.0000
C21  C  1.0000  0.20131  0.59298  0.14290  0.0000
C22  C  1.0000  0.86414  0.54035  0.15199  0.0000
C23  C  1.0000  0.00404  0.80164  0.14350  0.0000
C24  C  1.0000  0.07089  0.73353  0.14457  0.0000
C25  C  1.0000  0.20480  0.79535  0.14211  0.0000
C26  C  1.0000  0.27442  0.72764  0.14531  0.0000
C27  C  1.0000  0.41074  0.79826  0.14885  0.0000
C28  C  1.0000  0.61502  0.81376  0.16057  0.0000
C29  C  1.0000  0.80979  0.81112  0.15736  0.0000
C30  C  1.0000  0.87270  0.73987  0.15330  0.0000
C31  C  1.0000  0.00225  0.00063  0.13328  0.0000
C32  C  1.0000  0.06802  0.93252  0.13448  0.0000
C33  C  1.0000  0.20018  0.99497  0.13070  0.0000
C34  C  1.0000  0.26829  0.92878  0.13672  0.0000
C35  C  1.0000  0.40115  0.99654  0.13864  0.0000
C36  C  1.0000  0.47060  0.93179  0.14517  0.0000
C37  C  1.0000  0.60328  0.00414  0.14569  0.0000
C38  C  1.0000  0.67470  0.94263  0.15134  0.0000
C39  C  1.0000  0.80615  0.00764  0.14517  0.0000
C40  C  1.0000  0.87243  0.93966  0.14461  0.0000
N1  N  1.0000  0.58244  0.39136  0.15012  0.0000
N2  N  1.0000  0.80399  0.61049  0.16043  0.0000
N3  N  1.0000  0.68278  0.75201  0.17248  0.0000
N4  N  1.0000  0.38959  0.38640  0.13207  0.0000
N5  N  1.0000  0.25934  0.52217  0.13916  0.0000
N6  N  1.0000  0.48718  0.74357  0.15539  0.0000
Ir1  Ir  1.0000  0.44612  0.56615  0.14732  0.0000
Nb1  Nb  1.0000  0.61520  0.56228  0.19313  0.0000
