data_CNIrPd
_audit_creation_method           'pos2cif.pl'
_cell_length_a               12.3170003891
_cell_length_b               12.3170003891315
_cell_length_c               20
_cell_angle_alpha            90
_cell_angle_beta             90
_cell_angle_gamma            120.010002136348
_symmetry_space_group_H-M        'P1'
_symmetry_Int_Tables_number      '1'
_symmetry_cell_setting           'triclinic'
loop_
_symmetry_equiv_pos_as_xyz
x,y,z

loop_
_atom_site_label
_atom_site_type_symbol
_atom_site_occupancy
_atom_site_fract_x
_atom_site_fract_y
_atom_site_fract_z
_atom_site_U_iso_or_equiv
C1  C  1.0000  0.99806  0.19944  0.13975  0.0000
C2  C  1.0000  0.06386  0.13130  0.13766  0.0000
C3  C  1.0000  0.19489  0.19329  0.13041  0.0000
C4  C  1.0000  0.26214  0.12647  0.13128  0.0000
C5  C  1.0000  0.39377  0.19309  0.13098  0.0000
C6  C  1.0000  0.46433  0.13081  0.13724  0.0000
C7  C  1.0000  0.59720  0.20254  0.14080  0.0000
C8  C  1.0000  0.66629  0.13783  0.14523  0.0000
C9  C  1.0000  0.79897  0.20485  0.14536  0.0000
C10  C  1.0000  0.86683  0.13793  0.14596  0.0000
C11  C  1.0000  0.99635  0.40009  0.14110  0.0000
C12  C  1.0000  0.06184  0.33095  0.13636  0.0000
C13  C  1.0000  0.19291  0.39277  0.12957  0.0000
C14  C  1.0000  0.25977  0.32381  0.12543  0.0000
C15  C  1.0000  0.45541  0.32524  0.12980  0.0000
C16  C  1.0000  0.65668  0.33630  0.14287  0.0000
C17  C  1.0000  0.79319  0.40585  0.14732  0.0000
C18  C  1.0000  0.86222  0.33832  0.14448  0.0000
C19  C  1.0000  0.00221  0.60088  0.14673  0.0000
C20  C  1.0000  0.06811  0.53245  0.14176  0.0000
C21  C  1.0000  0.20334  0.59337  0.13817  0.0000
C22  C  1.0000  0.86699  0.54040  0.15187  0.0000
C23  C  1.0000  0.00517  0.80172  0.14871  0.0000
C24  C  1.0000  0.07167  0.73317  0.14597  0.0000
C25  C  1.0000  0.20573  0.79557  0.14217  0.0000
C26  C  1.0000  0.27486  0.72803  0.14117  0.0000
C27  C  1.0000  0.41065  0.79961  0.14476  0.0000
C28  C  1.0000  0.61200  0.81081  0.15658  0.0000
C29  C  1.0000  0.80557  0.80763  0.15998  0.0000
C30  C  1.0000  0.87370  0.73832  0.15763  0.0000
C31  C  1.0000  0.00180  0.00022  0.14426  0.0000
C32  C  1.0000  0.06841  0.93278  0.14291  0.0000
C33  C  1.0000  0.20001  0.99508  0.13717  0.0000
C34  C  1.0000  0.26849  0.92901  0.13951  0.0000
C35  C  1.0000  0.40122  0.99743  0.14032  0.0000
C36  C  1.0000  0.47033  0.93300  0.14557  0.0000
C37  C  1.0000  0.60311  0.00477  0.14838  0.0000
C38  C  1.0000  0.67330  0.94219  0.15409  0.0000
C39  C  1.0000  0.80466  0.00656  0.15207  0.0000
C40  C  1.0000  0.87100  0.93839  0.15264  0.0000
N1  N  1.0000  0.58176  0.39134  0.14081  0.0000
N2  N  1.0000  0.81081  0.61108  0.16174  0.0000
N3  N  1.0000  0.67696  0.74735  0.16464  0.0000
N4  N  1.0000  0.38854  0.38808  0.12175  0.0000
N5  N  1.0000  0.26099  0.52118  0.13015  0.0000
N6  N  1.0000  0.48504  0.74356  0.14577  0.0000
Ir1  Ir  1.0000  0.43987  0.57054  0.12719  0.0000
Pd1  Pd  1.0000  0.62603  0.56575  0.16588  0.0000
