data_CNIrRe
_audit_creation_method           'pos2cif.pl'
_cell_length_a               12.3170003891
_cell_length_b               12.3170003891315
_cell_length_c               20
_cell_angle_alpha            90
_cell_angle_beta             90
_cell_angle_gamma            120.010002136348
_symmetry_space_group_H-M        'P1'
_symmetry_Int_Tables_number      '1'
_symmetry_cell_setting           'triclinic'
loop_
_symmetry_equiv_pos_as_xyz
x,y,z

loop_
_atom_site_label
_atom_site_type_symbol
_atom_site_occupancy
_atom_site_fract_x
_atom_site_fract_y
_atom_site_fract_z
_atom_site_U_iso_or_equiv
C1  C  1.0000  0.99879  0.20061  0.13271  0.0000
C2  C  1.0000  0.06476  0.13274  0.12981  0.0000
C3  C  1.0000  0.19609  0.19452  0.13049  0.0000
C4  C  1.0000  0.26241  0.12664  0.13109  0.0000
C5  C  1.0000  0.39366  0.19174  0.13494  0.0000
C6  C  1.0000  0.46413  0.12907  0.13821  0.0000
C7  C  1.0000  0.59717  0.20080  0.14127  0.0000
C8  C  1.0000  0.66662  0.13653  0.14080  0.0000
C9  C  1.0000  0.79915  0.20513  0.13959  0.0000
C10  C  1.0000  0.86729  0.13872  0.13612  0.0000
C11  C  1.0000  0.99602  0.40057  0.14167  0.0000
C12  C  1.0000  0.06216  0.33176  0.13648  0.0000
C13  C  1.0000  0.19353  0.39376  0.13810  0.0000
C14  C  1.0000  0.26016  0.32485  0.13560  0.0000
C15  C  1.0000  0.45301  0.32180  0.14087  0.0000
C16  C  1.0000  0.65754  0.33276  0.14671  0.0000
C17  C  1.0000  0.79293  0.40597  0.14800  0.0000
C18  C  1.0000  0.86228  0.33851  0.14262  0.0000
C19  C  1.0000  0.99871  0.60102  0.14795  0.0000
C20  C  1.0000  0.06593  0.53282  0.14533  0.0000
C21  C  1.0000  0.20157  0.59335  0.14554  0.0000
C22  C  1.0000  0.86351  0.54039  0.15147  0.0000
C23  C  1.0000  0.00474  0.80233  0.14138  0.0000
C24  C  1.0000  0.07086  0.73353  0.14431  0.0000
C25  C  1.0000  0.20471  0.79514  0.14283  0.0000
C26  C  1.0000  0.27426  0.72765  0.14653  0.0000
C27  C  1.0000  0.41067  0.79921  0.14888  0.0000
C28  C  1.0000  0.61610  0.81278  0.15436  0.0000
C29  C  1.0000  0.80919  0.81123  0.14936  0.0000
C30  C  1.0000  0.87409  0.74209  0.14828  0.0000
C31  C  1.0000  0.00278  0.00139  0.13231  0.0000
C32  C  1.0000  0.06854  0.93330  0.13420  0.0000
C33  C  1.0000  0.20024  0.99501  0.13304  0.0000
C34  C  1.0000  0.26819  0.92851  0.13810  0.0000
C35  C  1.0000  0.40096  0.99630  0.13959  0.0000
C36  C  1.0000  0.47060  0.93205  0.14441  0.0000
C37  C  1.0000  0.60345  0.00366  0.14323  0.0000
C38  C  1.0000  0.67490  0.94202  0.14557  0.0000
C39  C  1.0000  0.80585  0.00774  0.13971  0.0000
C40  C  1.0000  0.87223  0.94036  0.13918  0.0000
N1  N  1.0000  0.58213  0.38810  0.15247  0.0000
N2  N  1.0000  0.80395  0.61388  0.15578  0.0000
N3  N  1.0000  0.68206  0.74855  0.16086  0.0000
N4  N  1.0000  0.38870  0.38649  0.14119  0.0000
N5  N  1.0000  0.25932  0.52111  0.14384  0.0000
N6  N  1.0000  0.48688  0.74529  0.15483  0.0000
Ir1  Ir  1.0000  0.44478  0.57160  0.15134  0.0000
Re1  Re  1.0000  0.61948  0.55775  0.17098  0.0000
