data_CNIrRu
_audit_creation_method           'pos2cif.pl'
_cell_length_a               12.3170003891
_cell_length_b               12.3170003891315
_cell_length_c               20
_cell_angle_alpha            90
_cell_angle_beta             90
_cell_angle_gamma            120.010002136348
_symmetry_space_group_H-M        'P1'
_symmetry_Int_Tables_number      '1'
_symmetry_cell_setting           'triclinic'
loop_
_symmetry_equiv_pos_as_xyz
x,y,z

loop_
_atom_site_label
_atom_site_type_symbol
_atom_site_occupancy
_atom_site_fract_x
_atom_site_fract_y
_atom_site_fract_z
_atom_site_U_iso_or_equiv
C1  C  1.0000  0.99960  0.20089  0.14131  0.0000
C2  C  1.0000  0.06530  0.13278  0.14048  0.0000
C3  C  1.0000  0.19638  0.19429  0.14097  0.0000
C4  C  1.0000  0.26224  0.12628  0.14115  0.0000
C5  C  1.0000  0.39352  0.19156  0.14231  0.0000
C6  C  1.0000  0.46431  0.12940  0.14297  0.0000
C7  C  1.0000  0.59720  0.20046  0.14360  0.0000
C8  C  1.0000  0.66707  0.13711  0.14342  0.0000
C9  C  1.0000  0.79979  0.20532  0.14299  0.0000
C10  C  1.0000  0.86797  0.13915  0.14188  0.0000
C11  C  1.0000  0.99706  0.40084  0.14353  0.0000
C12  C  1.0000  0.06340  0.33209  0.14250  0.0000
C13  C  1.0000  0.19486  0.39363  0.14301  0.0000
C14  C  1.0000  0.26172  0.32516  0.14243  0.0000
C15  C  1.0000  0.45442  0.32216  0.14337  0.0000
C16  C  1.0000  0.65776  0.33298  0.14413  0.0000
C17  C  1.0000  0.79367  0.40586  0.14425  0.0000
C18  C  1.0000  0.86327  0.33883  0.14359  0.0000
C19  C  1.0000  -0.00057  0.60079  0.14418  0.0000
C20  C  1.0000  0.06725  0.53311  0.14418  0.0000
C21  C  1.0000  0.20313  0.59415  0.14434  0.0000
C22  C  1.0000  0.86345  0.53991  0.14439  0.0000
C23  C  1.0000  0.00353  0.80144  0.14237  0.0000
C24  C  1.0000  0.07028  0.73305  0.14336  0.0000
C25  C  1.0000  0.20428  0.79513  0.14335  0.0000
C26  C  1.0000  0.27413  0.72810  0.14422  0.0000
C27  C  1.0000  0.41031  0.80052  0.14437  0.0000
C28  C  1.0000  0.61469  0.81272  0.14416  0.0000
C29  C  1.0000  0.80571  0.80872  0.14293  0.0000
C30  C  1.0000  0.87172  0.73958  0.14318  0.0000
C31  C  1.0000  0.00249  0.00117  0.14053  0.0000
C32  C  1.0000  0.06794  0.93290  0.14102  0.0000
C33  C  1.0000  0.19974  0.99485  0.14122  0.0000
C34  C  1.0000  0.26791  0.92859  0.14247  0.0000
C35  C  1.0000  0.40067  0.99667  0.14305  0.0000
C36  C  1.0000  0.47061  0.93321  0.14381  0.0000
C37  C  1.0000  0.60352  0.00450  0.14356  0.0000
C38  C  1.0000  0.67471  0.94294  0.14323  0.0000
C39  C  1.0000  0.80578  0.00789  0.14201  0.0000
C40  C  1.0000  0.87141  0.93966  0.14152  0.0000
N1  N  1.0000  0.58378  0.38786  0.14451  0.0000
N2  N  1.0000  0.80290  0.61146  0.14441  0.0000
N3  N  1.0000  0.67744  0.74634  0.14437  0.0000
N4  N  1.0000  0.39036  0.38782  0.14362  0.0000
N5  N  1.0000  0.26212  0.52172  0.14423  0.0000
N6  N  1.0000  0.48560  0.74662  0.14491  0.0000
Ir1  Ir  1.0000  0.44355  0.57491  0.14495  0.0000
Ru1  Ru  1.0000  0.61903  0.55604  0.14560  0.0000
