data_CNIrTc
_audit_creation_method           'pos2cif.pl'
_cell_length_a               12.3170003891
_cell_length_b               12.3170003891315
_cell_length_c               20
_cell_angle_alpha            90
_cell_angle_beta             90
_cell_angle_gamma            120.010002136348
_symmetry_space_group_H-M        'P1'
_symmetry_Int_Tables_number      '1'
_symmetry_cell_setting           'triclinic'
loop_
_symmetry_equiv_pos_as_xyz
x,y,z

loop_
_atom_site_label
_atom_site_type_symbol
_atom_site_occupancy
_atom_site_fract_x
_atom_site_fract_y
_atom_site_fract_z
_atom_site_U_iso_or_equiv
C1  C  1.0000  0.99949  0.20100  0.14169  0.0000
C2  C  1.0000  0.06546  0.13323  0.14123  0.0000
C3  C  1.0000  0.19638  0.19452  0.14163  0.0000
C4  C  1.0000  0.26214  0.12630  0.14159  0.0000
C5  C  1.0000  0.39322  0.19081  0.14223  0.0000
C6  C  1.0000  0.46421  0.12879  0.14259  0.0000
C7  C  1.0000  0.59711  0.19985  0.14296  0.0000
C8  C  1.0000  0.66688  0.13661  0.14265  0.0000
C9  C  1.0000  0.79958  0.20516  0.14252  0.0000
C10  C  1.0000  0.86794  0.13926  0.14187  0.0000
C11  C  1.0000  0.99664  0.40076  0.14307  0.0000
C12  C  1.0000  0.06307  0.33207  0.14248  0.0000
C13  C  1.0000  0.19446  0.39378  0.14301  0.0000
C14  C  1.0000  0.26127  0.32521  0.14275  0.0000
C15  C  1.0000  0.45377  0.32091  0.14347  0.0000
C16  C  1.0000  0.65776  0.33217  0.14401  0.0000
C17  C  1.0000  0.79342  0.40578  0.14395  0.0000
C18  C  1.0000  0.86298  0.33863  0.14312  0.0000
C19  C  1.0000  -0.00098  0.60088  0.14361  0.0000
C20  C  1.0000  0.06649  0.53312  0.14352  0.0000
C21  C  1.0000  0.20210  0.59382  0.14374  0.0000
C22  C  1.0000  0.86342  0.54012  0.14412  0.0000
C23  C  1.0000  0.00422  0.80214  0.14233  0.0000
C24  C  1.0000  0.07050  0.73334  0.14302  0.0000
C25  C  1.0000  0.20436  0.79511  0.14306  0.0000
C26  C  1.0000  0.27404  0.72786  0.14374  0.0000
C27  C  1.0000  0.41030  0.79975  0.14398  0.0000
C28  C  1.0000  0.61544  0.81323  0.14437  0.0000
C29  C  1.0000  0.80728  0.81010  0.14331  0.0000
C30  C  1.0000  0.87279  0.74081  0.14314  0.0000
C31  C  1.0000  0.00313  0.00189  0.14118  0.0000
C32  C  1.0000  0.06840  0.93349  0.14154  0.0000
C33  C  1.0000  0.19995  0.99505  0.14168  0.0000
C34  C  1.0000  0.26792  0.92854  0.14247  0.0000
C35  C  1.0000  0.40063  0.99622  0.14271  0.0000
C36  C  1.0000  0.47051  0.93255  0.14326  0.0000
C37  C  1.0000  0.60337  0.00407  0.14283  0.0000
C38  C  1.0000  0.67498  0.94307  0.14287  0.0000
C39  C  1.0000  0.80610  0.00823  0.14202  0.0000
C40  C  1.0000  0.87229  0.94068  0.14182  0.0000
N1  N  1.0000  0.58315  0.38655  0.14540  0.0000
N2  N  1.0000  0.80352  0.61242  0.14449  0.0000
N3  N  1.0000  0.67903  0.74782  0.14543  0.0000
N4  N  1.0000  0.39005  0.38684  0.14379  0.0000
N5  N  1.0000  0.26056  0.52185  0.14382  0.0000
N6  N  1.0000  0.48634  0.74630  0.14477  0.0000
Ir1  Ir  1.0000  0.44424  0.57392  0.14490  0.0000
Tc1  Tc  1.0000  0.61711  0.55656  0.14821  0.0000
