data_CNIrV
_audit_creation_method           'pos2cif.pl'
_cell_length_a               12.3170003891
_cell_length_b               12.3170003891315
_cell_length_c               20
_cell_angle_alpha            90
_cell_angle_beta             90
_cell_angle_gamma            120.010002136348
_symmetry_space_group_H-M        'P1'
_symmetry_Int_Tables_number      '1'
_symmetry_cell_setting           'triclinic'
loop_
_symmetry_equiv_pos_as_xyz
x,y,z

loop_
_atom_site_label
_atom_site_type_symbol
_atom_site_occupancy
_atom_site_fract_x
_atom_site_fract_y
_atom_site_fract_z
_atom_site_U_iso_or_equiv
C1  C  1.0000  0.99881  0.20011  0.13931  0.0000
C2  C  1.0000  0.06470  0.13224  0.13713  0.0000
C3  C  1.0000  0.19604  0.19452  0.13178  0.0000
C4  C  1.0000  0.26283  0.12703  0.13233  0.0000
C5  C  1.0000  0.39453  0.19252  0.13289  0.0000
C6  C  1.0000  0.46453  0.12975  0.13807  0.0000
C7  C  1.0000  0.59770  0.20216  0.14122  0.0000
C8  C  1.0000  0.66667  0.13724  0.14483  0.0000
C9  C  1.0000  0.79921  0.20479  0.14476  0.0000
C10  C  1.0000  0.86745  0.13816  0.14509  0.0000
C11  C  1.0000  0.99606  0.40026  0.14101  0.0000
C12  C  1.0000  0.06227  0.33146  0.13722  0.0000
C13  C  1.0000  0.19395  0.39453  0.13339  0.0000
C14  C  1.0000  0.26051  0.32501  0.12978  0.0000
C15  C  1.0000  0.45595  0.32413  0.13291  0.0000
C16  C  1.0000  0.65770  0.33521  0.14290  0.0000
C17  C  1.0000  0.79298  0.40567  0.14553  0.0000
C18  C  1.0000  0.86218  0.33811  0.14359  0.0000
C19  C  1.0000  -0.00102  0.60078  0.14523  0.0000
C20  C  1.0000  0.06561  0.53259  0.14177  0.0000
C21  C  1.0000  0.20107  0.59295  0.13971  0.0000
C22  C  1.0000  0.86366  0.54068  0.14835  0.0000
C23  C  1.0000  0.00425  0.80171  0.14605  0.0000
C24  C  1.0000  0.07076  0.73343  0.14427  0.0000
C25  C  1.0000  0.20501  0.79538  0.14177  0.0000
C26  C  1.0000  0.27442  0.72779  0.14187  0.0000
C27  C  1.0000  0.41075  0.79830  0.14469  0.0000
C28  C  1.0000  0.61445  0.81190  0.15623  0.0000
C29  C  1.0000  0.80788  0.80923  0.15658  0.0000
C30  C  1.0000  0.87233  0.73889  0.15233  0.0000
C31  C  1.0000  0.00289  0.00128  0.14242  0.0000
C32  C  1.0000  0.06856  0.93325  0.14144  0.0000
C33  C  1.0000  0.20032  0.99540  0.13689  0.0000
C34  C  1.0000  0.26845  0.92895  0.13924  0.0000
C35  C  1.0000  0.40131  0.99667  0.14029  0.0000
C36  C  1.0000  0.47060  0.93181  0.14497  0.0000
C37  C  1.0000  0.60340  0.00410  0.14771  0.0000
C38  C  1.0000  0.67435  0.94228  0.15336  0.0000
C39  C  1.0000  0.80589  0.00742  0.15089  0.0000
C40  C  1.0000  0.87213  0.93939  0.15033  0.0000
N1  N  1.0000  0.58433  0.39340  0.14301  0.0000
N2  N  1.0000  0.80310  0.61012  0.15373  0.0000
N3  N  1.0000  0.67915  0.74703  0.16354  0.0000
N4  N  1.0000  0.39017  0.38678  0.12799  0.0000
N5  N  1.0000  0.25882  0.52229  0.13538  0.0000
N6  N  1.0000  0.48725  0.74343  0.14681  0.0000
Ir1  Ir  1.0000  0.44910  0.56894  0.13425  0.0000
V1  V  1.0000  0.61395  0.56206  0.16708  0.0000
