data_CNIrW
_audit_creation_method           'pos2cif.pl'
_cell_length_a               12.3170003891
_cell_length_b               12.3170003891315
_cell_length_c               20
_cell_angle_alpha            90
_cell_angle_beta             90
_cell_angle_gamma            120.010002136348
_symmetry_space_group_H-M        'P1'
_symmetry_Int_Tables_number      '1'
_symmetry_cell_setting           'triclinic'
loop_
_symmetry_equiv_pos_as_xyz
x,y,z

loop_
_atom_site_label
_atom_site_type_symbol
_atom_site_occupancy
_atom_site_fract_x
_atom_site_fract_y
_atom_site_fract_z
_atom_site_U_iso_or_equiv
C1  C  1.0000  0.99823  0.20007  0.12979  0.0000
C2  C  1.0000  0.06412  0.13208  0.12628  0.0000
C3  C  1.0000  0.19580  0.19439  0.12448  0.0000
C4  C  1.0000  0.26281  0.12687  0.12620  0.0000
C5  C  1.0000  0.39430  0.19233  0.13080  0.0000
C6  C  1.0000  0.46414  0.12932  0.13708  0.0000
C7  C  1.0000  0.59744  0.20179  0.14144  0.0000
C8  C  1.0000  0.66654  0.13670  0.14242  0.0000
C9  C  1.0000  0.79892  0.20480  0.14026  0.0000
C10  C  1.0000  0.86706  0.13805  0.13684  0.0000
C11  C  1.0000  0.99563  0.40034  0.13938  0.0000
C12  C  1.0000  0.06167  0.33151  0.13213  0.0000
C13  C  1.0000  0.19317  0.39427  0.13220  0.0000
C14  C  1.0000  0.25966  0.32480  0.12825  0.0000
C15  C  1.0000  0.45394  0.32325  0.13639  0.0000
C16  C  1.0000  0.65751  0.33383  0.14681  0.0000
C17  C  1.0000  0.79281  0.40593  0.14842  0.0000
C18  C  1.0000  0.86190  0.33817  0.14204  0.0000
C19  C  1.0000  -0.00153  0.60071  0.14823  0.0000
C20  C  1.0000  0.06525  0.53241  0.14375  0.0000
C21  C  1.0000  0.20086  0.59288  0.14354  0.0000
C22  C  1.0000  0.86385  0.54047  0.15294  0.0000
C23  C  1.0000  0.00471  0.80224  0.14273  0.0000
C24  C  1.0000  0.07104  0.73364  0.14481  0.0000
C25  C  1.0000  0.20484  0.79516  0.14259  0.0000
C26  C  1.0000  0.27439  0.72739  0.14620  0.0000
C27  C  1.0000  0.41082  0.79822  0.14999  0.0000
C28  C  1.0000  0.61613  0.81315  0.16076  0.0000
C29  C  1.0000  0.81082  0.81200  0.15574  0.0000
C30  C  1.0000  0.87408  0.74164  0.15221  0.0000
C31  C  1.0000  0.00250  0.00101  0.13190  0.0000
C32  C  1.0000  0.06843  0.93300  0.13348  0.0000
C33  C  1.0000  0.20037  0.99500  0.13050  0.0000
C34  C  1.0000  0.26834  0.92867  0.13702  0.0000
C35  C  1.0000  0.40121  0.99646  0.13941  0.0000
C36  C  1.0000  0.47064  0.93156  0.14617  0.0000
C37  C  1.0000  0.60339  0.00361  0.14627  0.0000
C38  C  1.0000  0.67510  0.94213  0.15113  0.0000
C39  C  1.0000  0.80622  0.00773  0.14390  0.0000
C40  C  1.0000  0.87269  0.94027  0.14288  0.0000
N1  N  1.0000  0.58166  0.39019  0.15276  0.0000
N2  N  1.0000  0.80421  0.61277  0.16026  0.0000
N3  N  1.0000  0.68403  0.75046  0.17086  0.0000
N4  N  1.0000  0.38883  0.38644  0.13367  0.0000
N5  N  1.0000  0.25814  0.52142  0.13957  0.0000
N6  N  1.0000  0.48757  0.74377  0.15671  0.0000
Ir1  Ir  1.0000  0.44609  0.56796  0.14815  0.0000
W1  W  1.0000  0.61671  0.56030  0.18258  0.0000
