data_CNIrY
_audit_creation_method           'pos2cif.pl'
_cell_length_a               12.3170003891
_cell_length_b               12.3170003891315
_cell_length_c               20
_cell_angle_alpha            90
_cell_angle_beta             90
_cell_angle_gamma            120.010002136348
_symmetry_space_group_H-M        'P1'
_symmetry_Int_Tables_number      '1'
_symmetry_cell_setting           'triclinic'
loop_
_symmetry_equiv_pos_as_xyz
x,y,z

loop_
_atom_site_label
_atom_site_type_symbol
_atom_site_occupancy
_atom_site_fract_x
_atom_site_fract_y
_atom_site_fract_z
_atom_site_U_iso_or_equiv
C1  C  1.0000  0.00014  0.19945  0.14011  0.0000
C2  C  1.0000  0.06423  0.13041  0.13834  0.0000
C3  C  1.0000  0.19685  0.19491  0.13779  0.0000
C4  C  1.0000  0.26295  0.12770  0.13641  0.0000
C5  C  1.0000  0.39512  0.19542  0.13789  0.0000
C6  C  1.0000  0.46490  0.13242  0.13940  0.0000
C7  C  1.0000  0.59865  0.20299  0.14142  0.0000
C8  C  1.0000  0.66785  0.13844  0.14041  0.0000
C9  C  1.0000  0.80048  0.20388  0.14183  0.0000
C10  C  1.0000  0.86796  0.13637  0.14013  0.0000
C11  C  1.0000  -0.00075  0.39976  0.14421  0.0000
C12  C  1.0000  0.06553  0.33122  0.14191  0.0000
C13  C  1.0000  0.19750  0.39392  0.14148  0.0000
C14  C  1.0000  0.26380  0.32651  0.13927  0.0000
C15  C  1.0000  0.45895  0.32745  0.14093  0.0000
C16  C  1.0000  0.66000  0.33507  0.14660  0.0000
C17  C  1.0000  0.79601  0.40404  0.14850  0.0000
C18  C  1.0000  0.86525  0.33685  0.14497  0.0000
C19  C  1.0000  0.00226  0.59967  0.14566  0.0000
C20  C  1.0000  0.07012  0.53231  0.14441  0.0000
C21  C  1.0000  0.20638  0.59482  0.14350  0.0000
C22  C  1.0000  0.86777  0.53802  0.15008  0.0000
C23  C  1.0000  0.00079  0.79924  0.14144  0.0000
C24  C  1.0000  0.06966  0.73293  0.14315  0.0000
C25  C  1.0000  0.20293  0.79621  0.14119  0.0000
C26  C  1.0000  0.27316  0.72937  0.14220  0.0000
C27  C  1.0000  0.40773  0.80374  0.14124  0.0000
C28  C  1.0000  0.60889  0.81444  0.14212  0.0000
C29  C  1.0000  0.79745  0.79866  0.14053  0.0000
C30  C  1.0000  0.86681  0.73339  0.14520  0.0000
C31  C  1.0000  -0.00130  -0.00262  0.13791  0.0000
C32  C  1.0000  0.06563  0.93080  0.13788  0.0000
C33  C  1.0000  0.19874  0.99553  0.13706  0.0000
C34  C  1.0000  0.26705  0.93001  0.13880  0.0000
C35  C  1.0000  0.40015  -0.00010  0.13920  0.0000
C36  C  1.0000  0.46986  0.93629  0.14005  0.0000
C37  C  1.0000  0.60251  0.00596  0.13955  0.0000
C38  C  1.0000  0.67268  0.94299  0.13992  0.0000
C39  C  1.0000  0.80441  0.00517  0.13917  0.0000
C40  C  1.0000  0.86586  0.93247  0.13868  0.0000
N1  N  1.0000  0.58673  0.39277  0.15067  0.0000
N2  N  1.0000  0.80511  0.60505  0.15599  0.0000
N3  N  1.0000  0.66208  0.73687  0.14556  0.0000
N4  N  1.0000  0.39539  0.39330  0.13832  0.0000
N5  N  1.0000  0.26616  0.52289  0.14321  0.0000
N6  N  1.0000  0.48251  0.75065  0.14147  0.0000
Ir1  Ir  1.0000  0.44913  0.58114  0.13877  0.0000
Y1  Y  1.0000  0.62498  0.56236  0.20743  0.0000
