data_CNIrZn
_audit_creation_method           'pos2cif.pl'
_cell_length_a               12.3170003891
_cell_length_b               12.3170003891315
_cell_length_c               20
_cell_angle_alpha            90
_cell_angle_beta             90
_cell_angle_gamma            120.010002136348
_symmetry_space_group_H-M        'P1'
_symmetry_Int_Tables_number      '1'
_symmetry_cell_setting           'triclinic'
loop_
_symmetry_equiv_pos_as_xyz
x,y,z

loop_
_atom_site_label
_atom_site_type_symbol
_atom_site_occupancy
_atom_site_fract_x
_atom_site_fract_y
_atom_site_fract_z
_atom_site_U_iso_or_equiv
C1  C  1.0000  0.99879  0.19934  0.14238  0.0000
C2  C  1.0000  0.06356  0.13076  0.14208  0.0000
C3  C  1.0000  0.19575  0.19440  0.14202  0.0000
C4  C  1.0000  0.26202  0.12718  0.14194  0.0000
C5  C  1.0000  0.39337  0.19407  0.14220  0.0000
C6  C  1.0000  0.46422  0.13189  0.14267  0.0000
C7  C  1.0000  0.59747  0.20215  0.14298  0.0000
C8  C  1.0000  0.66676  0.13791  0.14291  0.0000
C9  C  1.0000  0.79957  0.20431  0.14291  0.0000
C10  C  1.0000  0.86702  0.13696  0.14252  0.0000
C11  C  1.0000  0.99775  0.39988  0.14323  0.0000
C12  C  1.0000  0.06360  0.33116  0.14276  0.0000
C13  C  1.0000  0.19536  0.39336  0.14275  0.0000
C14  C  1.0000  0.26195  0.32551  0.14230  0.0000
C15  C  1.0000  0.45545  0.32550  0.14268  0.0000
C16  C  1.0000  0.65829  0.33513  0.14370  0.0000
C17  C  1.0000  0.79444  0.40486  0.14398  0.0000
C18  C  1.0000  0.86352  0.33741  0.14337  0.0000
C19  C  1.0000  0.00313  0.60049  0.14346  0.0000
C20  C  1.0000  0.06978  0.53246  0.14340  0.0000
C21  C  1.0000  0.20571  0.59388  0.14354  0.0000
C22  C  1.0000  0.86803  0.53934  0.14421  0.0000
C23  C  1.0000  0.00355  0.80130  0.14255  0.0000
C24  C  1.0000  0.07070  0.73324  0.14306  0.0000
C25  C  1.0000  0.20435  0.79607  0.14309  0.0000
C26  C  1.0000  0.27390  0.72914  0.14359  0.0000
C27  C  1.0000  0.40851  0.80268  0.14382  0.0000
C28  C  1.0000  0.60968  0.81295  0.14381  0.0000
C29  C  1.0000  0.79976  0.80171  0.14277  0.0000
C30  C  1.0000  0.87107  0.73687  0.14322  0.0000
C31  C  1.0000  -0.00041  -0.00154  0.14204  0.0000
C32  C  1.0000  0.06714  0.93239  0.14206  0.0000
C33  C  1.0000  0.19922  0.99559  0.14212  0.0000
C34  C  1.0000  0.26749  0.92977  0.14267  0.0000
C35  C  1.0000  0.40033  0.99908  0.14289  0.0000
C36  C  1.0000  0.46980  0.93540  0.14335  0.0000
C37  C  1.0000  0.60243  0.00540  0.14307  0.0000
C38  C  1.0000  0.67264  0.94243  0.14309  0.0000
C39  C  1.0000  0.80395  0.00550  0.14251  0.0000
C40  C  1.0000  0.86704  0.93446  0.14228  0.0000
N1  N  1.0000  0.58284  0.38932  0.14413  0.0000
N2  N  1.0000  0.80983  0.60920  0.14500  0.0000
N3  N  1.0000  0.66687  0.73985  0.14377  0.0000
N4  N  1.0000  0.39188  0.39183  0.14240  0.0000
N5  N  1.0000  0.26418  0.52160  0.14335  0.0000
N6  N  1.0000  0.48279  0.74870  0.14426  0.0000
Ir1  Ir  1.0000  0.44552  0.57843  0.14326  0.0000
Zn1  Zn  1.0000  0.63642  0.56185  0.14974  0.0000
