data_CNMn
_audit_creation_method           'pos2cif.pl'
_cell_length_a               12.3170003891
_cell_length_b               12.3170003891315
_cell_length_c               20
_cell_angle_alpha            90
_cell_angle_beta             90
_cell_angle_gamma            120.010002136348
_symmetry_space_group_H-M        'P1'
_symmetry_Int_Tables_number      '1'
_symmetry_cell_setting           'triclinic'
loop_
_symmetry_equiv_pos_as_xyz
x,y,z

loop_
_atom_site_label
_atom_site_type_symbol
_atom_site_occupancy
_atom_site_fract_x
_atom_site_fract_y
_atom_site_fract_z
_atom_site_U_iso_or_equiv
C1  C  1.0000  0.99894  0.19992  0.14348  0.0000
C2  C  1.0000  0.06529  0.13294  0.14292  0.0000
C3  C  1.0000  0.19739  0.19706  0.14245  0.0000
C4  C  1.0000  0.26356  0.12916  0.14220  0.0000
C5  C  1.0000  0.39541  0.19493  0.14238  0.0000
C6  C  1.0000  0.46498  0.13115  0.14333  0.0000
C7  C  1.0000  0.59795  0.20169  0.14386  0.0000
C8  C  1.0000  0.66644  0.13601  0.14413  0.0000
C9  C  1.0000  0.79906  0.20329  0.14422  0.0000
C10  C  1.0000  0.86670  0.13637  0.14401  0.0000
C11  C  1.0000  0.99664  0.39984  0.14323  0.0000
C12  C  1.0000  0.06326  0.33166  0.14306  0.0000
C13  C  1.0000  0.19543  0.39590  0.14178  0.0000
C14  C  1.0000  0.26301  0.32852  0.14164  0.0000
C15  C  1.0000  0.45799  0.32663  0.14171  0.0000
C16  C  1.0000  0.65895  0.33504  0.14442  0.0000
C17  C  1.0000  0.79430  0.40483  0.14464  0.0000
C18  C  1.0000  0.86293  0.33696  0.14413  0.0000
C19  C  1.0000  0.00078  0.60108  0.14292  0.0000
C20  C  1.0000  0.06660  0.53271  0.14241  0.0000
C21  C  1.0000  0.20145  0.59405  0.14105  0.0000
C22  C  1.0000  0.86594  0.53974  0.14452  0.0000
C23  C  1.0000  0.00411  0.80214  0.14256  0.0000
C24  C  1.0000  0.07072  0.73395  0.14228  0.0000
C25  C  1.0000  0.20445  0.79683  0.14183  0.0000
C26  C  1.0000  0.27308  0.72896  0.14139  0.0000
C27  C  1.0000  0.40843  0.79874  0.14235  0.0000
C28  C  1.0000  0.60938  0.80718  0.14535  0.0000
C29  C  1.0000  0.80437  0.80528  0.14468  0.0000
C30  C  1.0000  0.87194  0.73789  0.14404  0.0000
C31  C  1.0000  0.00206  0.00087  0.14273  0.0000
C32  C  1.0000  0.06841  0.93388  0.14224  0.0000
C33  C  1.0000  0.20066  0.99743  0.14221  0.0000
C34  C  1.0000  0.26829  0.93050  0.14230  0.0000
C35  C  1.0000  0.40090  0.99777  0.14310  0.0000
C36  C  1.0000  0.46939  0.93209  0.14346  0.0000
C37  C  1.0000  0.60236  0.00265  0.14411  0.0000
C38  C  1.0000  0.67194  0.93887  0.14478  0.0000
C39  C  1.0000  0.80380  0.00464  0.14434  0.0000
C40  C  1.0000  0.86996  0.93673  0.14363  0.0000
N1  N  1.0000  0.58584  0.39273  0.14448  0.0000
N2  N  1.0000  0.80653  0.60896  0.14607  0.0000
N3  N  1.0000  0.67312  0.74108  0.14762  0.0000
N4  N  1.0000  0.39429  0.39274  0.13931  0.0000
N5  N  1.0000  0.26088  0.52483  0.13964  0.0000
N6  N  1.0000  0.48155  0.74105  0.14238  0.0000
Mn1  Mn  1.0000  0.43767  0.56814  0.12863  0.0000
Mn2  Mn  1.0000  0.62992  0.56575  0.15796  0.0000
