data_CNMnMo
_audit_creation_method           'pos2cif.pl'
_cell_length_a               12.3170003891
_cell_length_b               12.3170003891315
_cell_length_c               20
_cell_angle_alpha            90
_cell_angle_beta             90
_cell_angle_gamma            120.010002136348
_symmetry_space_group_H-M        'P1'
_symmetry_Int_Tables_number      '1'
_symmetry_cell_setting           'triclinic'
loop_
_symmetry_equiv_pos_as_xyz
x,y,z

loop_
_atom_site_label
_atom_site_type_symbol
_atom_site_occupancy
_atom_site_fract_x
_atom_site_fract_y
_atom_site_fract_z
_atom_site_U_iso_or_equiv
C1  C  1.0000  0.00139  0.20194  0.14649  0.0000
C2  C  1.0000  0.06773  0.13482  0.14578  0.0000
C3  C  1.0000  0.20006  0.19898  0.14142  0.0000
C4  C  1.0000  0.26368  0.12850  0.13935  0.0000
C5  C  1.0000  0.39530  0.19275  0.13506  0.0000
C6  C  1.0000  0.46520  0.12919  0.13721  0.0000
C7  C  1.0000  0.59844  0.19916  0.13784  0.0000
C8  C  1.0000  0.66761  0.13510  0.14258  0.0000
C9  C  1.0000  0.80049  0.20403  0.14467  0.0000
C10  C  1.0000  0.86879  0.13816  0.14779  0.0000
C11  C  1.0000  0.99802  0.40081  0.14315  0.0000
C12  C  1.0000  0.06589  0.33351  0.14370  0.0000
C13  C  1.0000  0.19852  0.39804  0.13895  0.0000
C14  C  1.0000  0.26640  0.33082  0.13797  0.0000
C15  C  1.0000  0.45887  0.32304  0.13056  0.0000
C16  C  1.0000  0.66034  0.33144  0.13725  0.0000
C17  C  1.0000  0.79476  0.40469  0.14245  0.0000
C18  C  1.0000  0.86438  0.33762  0.14342  0.0000
C19  C  1.0000  -0.00204  0.60089  0.14481  0.0000
C20  C  1.0000  0.06603  0.53351  0.14189  0.0000
C21  C  1.0000  0.20109  0.59488  0.13823  0.0000
C22  C  1.0000  0.86224  0.53920  0.14652  0.0000
C23  C  1.0000  0.00220  0.80153  0.14766  0.0000
C24  C  1.0000  0.06911  0.73361  0.14485  0.0000
C25  C  1.0000  0.20320  0.79631  0.14219  0.0000
C26  C  1.0000  0.27276  0.72908  0.14002  0.0000
C27  C  1.0000  0.40868  0.79876  0.14181  0.0000
C28  C  1.0000  0.61094  0.80911  0.15154  0.0000
C29  C  1.0000  0.80485  0.80733  0.15468  0.0000
C30  C  1.0000  0.86966  0.73801  0.15149  0.0000
C31  C  1.0000  0.00336  0.00242  0.14801  0.0000
C32  C  1.0000  0.06785  0.93362  0.14632  0.0000
C33  C  1.0000  0.20010  0.99685  0.14241  0.0000
C34  C  1.0000  0.26769  0.92974  0.14144  0.0000
C35  C  1.0000  0.40061  0.99652  0.14028  0.0000
C36  C  1.0000  0.46984  0.93157  0.14279  0.0000
C37  C  1.0000  0.60315  0.00255  0.14490  0.0000
C38  C  1.0000  0.67326  0.94009  0.15008  0.0000
C39  C  1.0000  0.80540  0.00660  0.15098  0.0000
C40  C  1.0000  0.87125  0.93872  0.15166  0.0000
N1  N  1.0000  0.58720  0.38741  0.13366  0.0000
N2  N  1.0000  0.79972  0.60848  0.15137  0.0000
N3  N  1.0000  0.67413  0.74339  0.15895  0.0000
N4  N  1.0000  0.39885  0.39489  0.12939  0.0000
N5  N  1.0000  0.26218  0.52655  0.13326  0.0000
N6  N  1.0000  0.48311  0.74193  0.14224  0.0000
Mn1  Mn  1.0000  0.44194  0.57532  0.12124  0.0000
Mo1  Mo  1.0000  0.60278  0.54971  0.16165  0.0000
