data_CNMnNb
_audit_creation_method           'pos2cif.pl'
_cell_length_a               12.3170003891
_cell_length_b               12.3170003891315
_cell_length_c               20
_cell_angle_alpha            90
_cell_angle_beta             90
_cell_angle_gamma            120.010002136348
_symmetry_space_group_H-M        'P1'
_symmetry_Int_Tables_number      '1'
_symmetry_cell_setting           'triclinic'
loop_
_symmetry_equiv_pos_as_xyz
x,y,z

loop_
_atom_site_label
_atom_site_type_symbol
_atom_site_occupancy
_atom_site_fract_x
_atom_site_fract_y
_atom_site_fract_z
_atom_site_U_iso_or_equiv
C1  C  1.0000  0.00116  0.20156  0.14648  0.0000
C2  C  1.0000  0.06747  0.13441  0.14598  0.0000
C3  C  1.0000  0.19989  0.19885  0.14194  0.0000
C4  C  1.0000  0.26413  0.12893  0.13981  0.0000
C5  C  1.0000  0.39575  0.19349  0.13531  0.0000
C6  C  1.0000  0.46552  0.13005  0.13654  0.0000
C7  C  1.0000  0.59894  0.20057  0.13677  0.0000
C8  C  1.0000  0.66770  0.13577  0.14207  0.0000
C9  C  1.0000  0.80043  0.20398  0.14436  0.0000
C10  C  1.0000  0.86850  0.13761  0.14757  0.0000
C11  C  1.0000  0.99800  0.40070  0.14363  0.0000
C12  C  1.0000  0.06559  0.33318  0.14404  0.0000
C13  C  1.0000  0.19830  0.39807  0.13956  0.0000
C14  C  1.0000  0.26588  0.33053  0.13839  0.0000
C15  C  1.0000  0.45932  0.32432  0.12942  0.0000
C16  C  1.0000  0.66080  0.33318  0.13525  0.0000
C17  C  1.0000  0.79507  0.40502  0.14218  0.0000
C18  C  1.0000  0.86426  0.33753  0.14342  0.0000
C19  C  1.0000  -0.00130  0.60089  0.14563  0.0000
C20  C  1.0000  0.06617  0.53333  0.14246  0.0000
C21  C  1.0000  0.20139  0.59469  0.13854  0.0000
C22  C  1.0000  0.86319  0.53947  0.14807  0.0000
C23  C  1.0000  0.00253  0.80134  0.14798  0.0000
C24  C  1.0000  0.06971  0.73376  0.14539  0.0000
C25  C  1.0000  0.20370  0.79654  0.14205  0.0000
C26  C  1.0000  0.27306  0.72916  0.13959  0.0000
C27  C  1.0000  0.40901  0.79892  0.14069  0.0000
C28  C  1.0000  0.61002  0.80865  0.15080  0.0000
C29  C  1.0000  0.80494  0.80646  0.15455  0.0000
C30  C  1.0000  0.86976  0.73708  0.15274  0.0000
C31  C  1.0000  0.00324  0.00200  0.14798  0.0000
C32  C  1.0000  0.06804  0.93347  0.14622  0.0000
C33  C  1.0000  0.20045  0.99705  0.14240  0.0000
C34  C  1.0000  0.26810  0.93010  0.14115  0.0000
C35  C  1.0000  0.40101  0.99718  0.13967  0.0000
C36  C  1.0000  0.47007  0.93208  0.14192  0.0000
C37  C  1.0000  0.60317  0.00287  0.14441  0.0000
C38  C  1.0000  0.67293  0.93980  0.14996  0.0000
C39  C  1.0000  0.80524  0.00609  0.15081  0.0000
C40  C  1.0000  0.87105  0.93794  0.15142  0.0000
N1  N  1.0000  0.58800  0.39038  0.12874  0.0000
N2  N  1.0000  0.80076  0.60755  0.15539  0.0000
N3  N  1.0000  0.67381  0.74257  0.15892  0.0000
N4  N  1.0000  0.39813  0.39469  0.12875  0.0000
N5  N  1.0000  0.26201  0.52645  0.13405  0.0000
N6  N  1.0000  0.48323  0.74217  0.14082  0.0000
Mn1  Mn  1.0000  0.44166  0.57362  0.11630  0.0000
Nb1  Nb  1.0000  0.59725  0.54710  0.17183  0.0000
