data_CNMnPd
_audit_creation_method           'pos2cif.pl'
_cell_length_a               12.3170003891
_cell_length_b               12.3170003891315
_cell_length_c               20
_cell_angle_alpha            90
_cell_angle_beta             90
_cell_angle_gamma            120.010002136348
_symmetry_space_group_H-M        'P1'
_symmetry_Int_Tables_number      '1'
_symmetry_cell_setting           'triclinic'
loop_
_symmetry_equiv_pos_as_xyz
x,y,z

loop_
_atom_site_label
_atom_site_type_symbol
_atom_site_occupancy
_atom_site_fract_x
_atom_site_fract_y
_atom_site_fract_z
_atom_site_U_iso_or_equiv
C1  C  1.0000  0.99801  0.19968  0.14134  0.0000
C2  C  1.0000  0.06434  0.13235  0.14052  0.0000
C3  C  1.0000  0.19583  0.19516  0.14100  0.0000
C4  C  1.0000  0.26265  0.12781  0.14121  0.0000
C5  C  1.0000  0.39400  0.19313  0.14234  0.0000
C6  C  1.0000  0.46451  0.13050  0.14301  0.0000
C7  C  1.0000  0.59731  0.20203  0.14365  0.0000
C8  C  1.0000  0.66611  0.13680  0.14345  0.0000
C9  C  1.0000  0.79872  0.20411  0.14302  0.0000
C10  C  1.0000  0.86637  0.13738  0.14193  0.0000
C11  C  1.0000  0.99600  0.39984  0.14353  0.0000
C12  C  1.0000  0.06180  0.33112  0.14247  0.0000
C13  C  1.0000  0.19365  0.39451  0.14295  0.0000
C14  C  1.0000  0.26048  0.32592  0.14238  0.0000
C15  C  1.0000  0.45537  0.32445  0.14340  0.0000
C16  C  1.0000  0.65739  0.33577  0.14419  0.0000
C17  C  1.0000  0.79357  0.40559  0.14429  0.0000
C18  C  1.0000  0.86203  0.33773  0.14362  0.0000
C19  C  1.0000  0.00254  0.60151  0.14407  0.0000
C20  C  1.0000  0.06731  0.53269  0.14412  0.0000
C21  C  1.0000  0.20173  0.59325  0.14428  0.0000
C22  C  1.0000  0.86779  0.54096  0.14431  0.0000
C23  C  1.0000  0.00590  0.80274  0.14235  0.0000
C24  C  1.0000  0.07195  0.73397  0.14331  0.0000
C25  C  1.0000  0.20574  0.79644  0.14333  0.0000
C26  C  1.0000  0.27405  0.72837  0.14420  0.0000
C27  C  1.0000  0.40951  0.79809  0.14433  0.0000
C28  C  1.0000  0.61121  0.80911  0.14412  0.0000
C29  C  1.0000  0.80607  0.80754  0.14298  0.0000
C30  C  1.0000  0.87413  0.73861  0.14319  0.0000
C31  C  1.0000  0.00244  0.00109  0.14058  0.0000
C32  C  1.0000  0.06909  0.93397  0.14103  0.0000
C33  C  1.0000  0.20069  0.99645  0.14126  0.0000
C34  C  1.0000  0.26864  0.92973  0.14247  0.0000
C35  C  1.0000  0.40106  0.99702  0.14307  0.0000
C36  C  1.0000  0.46964  0.93164  0.14381  0.0000
C37  C  1.0000  0.60271  0.00362  0.14357  0.0000
C38  C  1.0000  0.67272  0.94079  0.14322  0.0000
C39  C  1.0000  0.80399  0.00562  0.14206  0.0000
C40  C  1.0000  0.87092  0.93827  0.14159  0.0000
N1  N  1.0000  0.58246  0.39084  0.14455  0.0000
N2  N  1.0000  0.81188  0.61153  0.14431  0.0000
N3  N  1.0000  0.67712  0.74705  0.14434  0.0000
N4  N  1.0000  0.38990  0.38897  0.14357  0.0000
N5  N  1.0000  0.25964  0.52286  0.14414  0.0000
N6  N  1.0000  0.48272  0.74052  0.14481  0.0000
Mn1  Mn  1.0000  0.43785  0.56489  0.14525  0.0000
Pd1  Pd  1.0000  0.62750  0.56913  0.14542  0.0000
