data_CNMnPt
_audit_creation_method           'pos2cif.pl'
_cell_length_a               12.3170003891
_cell_length_b               12.3170003891315
_cell_length_c               20
_cell_angle_alpha            90
_cell_angle_beta             90
_cell_angle_gamma            120.010002136348
_symmetry_space_group_H-M        'P1'
_symmetry_Int_Tables_number      '1'
_symmetry_cell_setting           'triclinic'
loop_
_symmetry_equiv_pos_as_xyz
x,y,z

loop_
_atom_site_label
_atom_site_type_symbol
_atom_site_occupancy
_atom_site_fract_x
_atom_site_fract_y
_atom_site_fract_z
_atom_site_U_iso_or_equiv
C1  C  1.0000  0.99768  0.19969  0.14135  0.0000
C2  C  1.0000  0.06418  0.13246  0.14055  0.0000
C3  C  1.0000  0.19538  0.19483  0.14103  0.0000
C4  C  1.0000  0.26249  0.12772  0.14125  0.0000
C5  C  1.0000  0.39376  0.19296  0.14239  0.0000
C6  C  1.0000  0.46441  0.13037  0.14302  0.0000
C7  C  1.0000  0.59709  0.20219  0.14365  0.0000
C8  C  1.0000  0.66590  0.13672  0.14343  0.0000
C9  C  1.0000  0.79846  0.20423  0.14301  0.0000
C10  C  1.0000  0.86613  0.13744  0.14193  0.0000
C11  C  1.0000  0.99547  0.39989  0.14347  0.0000
C12  C  1.0000  0.06110  0.33104  0.14245  0.0000
C13  C  1.0000  0.19274  0.39422  0.14291  0.0000
C14  C  1.0000  0.25936  0.32533  0.14240  0.0000
C15  C  1.0000  0.45394  0.32386  0.14347  0.0000
C16  C  1.0000  0.65723  0.33608  0.14419  0.0000
C17  C  1.0000  0.79329  0.40598  0.14425  0.0000
C18  C  1.0000  0.86164  0.33785  0.14359  0.0000
C19  C  1.0000  0.00251  0.60167  0.14401  0.0000
C20  C  1.0000  0.06694  0.53267  0.14403  0.0000
C21  C  1.0000  0.20133  0.59295  0.14419  0.0000
C22  C  1.0000  0.86787  0.54126  0.14427  0.0000
C23  C  1.0000  0.00688  0.80326  0.14238  0.0000
C24  C  1.0000  0.07251  0.73415  0.14327  0.0000
C25  C  1.0000  0.20619  0.79639  0.14329  0.0000
C26  C  1.0000  0.27431  0.72814  0.14415  0.0000
C27  C  1.0000  0.40986  0.79768  0.14429  0.0000
C28  C  1.0000  0.61149  0.80854  0.14414  0.0000
C29  C  1.0000  0.80793  0.80887  0.14303  0.0000
C30  C  1.0000  0.87559  0.74001  0.14322  0.0000
C31  C  1.0000  0.00293  0.00148  0.14064  0.0000
C32  C  1.0000  0.06966  0.93438  0.14108  0.0000
C33  C  1.0000  0.20108  0.99651  0.14129  0.0000
C34  C  1.0000  0.26902  0.92970  0.14249  0.0000
C35  C  1.0000  0.40138  0.99692  0.14307  0.0000
C36  C  1.0000  0.46991  0.93136  0.14377  0.0000
C37  C  1.0000  0.60285  0.00333  0.14353  0.0000
C38  C  1.0000  0.67291  0.94029  0.14322  0.0000
C39  C  1.0000  0.80419  0.00579  0.14207  0.0000
C40  C  1.0000  0.87165  0.93909  0.14163  0.0000
N1  N  1.0000  0.58164  0.39132  0.14458  0.0000
N2  N  1.0000  0.81258  0.61271  0.14429  0.0000
N3  N  1.0000  0.67893  0.74716  0.14438  0.0000
N4  N  1.0000  0.38832  0.38792  0.14366  0.0000
N5  N  1.0000  0.25878  0.52241  0.14405  0.0000
N6  N  1.0000  0.48320  0.73999  0.14485  0.0000
Mn1  Mn  1.0000  0.43675  0.56332  0.14545  0.0000
Pt1  Pt  1.0000  0.62760  0.56903  0.14527  0.0000
