data_CNMnRu
_audit_creation_method           'pos2cif.pl'
_cell_length_a               12.3170003891
_cell_length_b               12.3170003891315
_cell_length_c               20
_cell_angle_alpha            90
_cell_angle_beta             90
_cell_angle_gamma            120.010002136348
_symmetry_space_group_H-M        'P1'
_symmetry_Int_Tables_number      '1'
_symmetry_cell_setting           'triclinic'
loop_
_symmetry_equiv_pos_as_xyz
x,y,z

loop_
_atom_site_label
_atom_site_type_symbol
_atom_site_occupancy
_atom_site_fract_x
_atom_site_fract_y
_atom_site_fract_z
_atom_site_U_iso_or_equiv
C1  C  1.0000  0.99981  0.20125  0.14136  0.0000
C2  C  1.0000  0.06546  0.13323  0.14056  0.0000
C3  C  1.0000  0.19702  0.19562  0.14104  0.0000
C4  C  1.0000  0.26219  0.12679  0.14120  0.0000
C5  C  1.0000  0.39363  0.19184  0.14236  0.0000
C6  C  1.0000  0.46416  0.12921  0.14301  0.0000
C7  C  1.0000  0.59711  0.20097  0.14363  0.0000
C8  C  1.0000  0.66667  0.13681  0.14345  0.0000
C9  C  1.0000  0.79961  0.20506  0.14301  0.0000
C10  C  1.0000  0.86782  0.13889  0.14192  0.0000
C11  C  1.0000  0.99734  0.40079  0.14354  0.0000
C12  C  1.0000  0.06432  0.33289  0.14252  0.0000
C13  C  1.0000  0.19673  0.39614  0.14303  0.0000
C14  C  1.0000  0.26276  0.32694  0.14242  0.0000
C15  C  1.0000  0.45438  0.32244  0.14336  0.0000
C16  C  1.0000  0.65734  0.33402  0.14413  0.0000
C17  C  1.0000  0.79350  0.40581  0.14426  0.0000
C18  C  1.0000  0.86310  0.33865  0.14361  0.0000
C19  C  1.0000  -0.00000  0.60091  0.14414  0.0000
C20  C  1.0000  0.06789  0.53321  0.14417  0.0000
C21  C  1.0000  0.20374  0.59358  0.14433  0.0000
C22  C  1.0000  0.86400  0.54038  0.14437  0.0000
C23  C  1.0000  0.00351  0.80155  0.14237  0.0000
C24  C  1.0000  0.07028  0.73321  0.14334  0.0000
C25  C  1.0000  0.20447  0.79529  0.14334  0.0000
C26  C  1.0000  0.27403  0.72798  0.14420  0.0000
C27  C  1.0000  0.40992  0.79810  0.14430  0.0000
C28  C  1.0000  0.61263  0.81059  0.14408  0.0000
C29  C  1.0000  0.80539  0.80832  0.14297  0.0000
C30  C  1.0000  0.87132  0.73864  0.14321  0.0000
C31  C  1.0000  0.00259  0.00155  0.14059  0.0000
C32  C  1.0000  0.06787  0.93313  0.14105  0.0000
C33  C  1.0000  0.19975  0.99529  0.14126  0.0000
C34  C  1.0000  0.26783  0.92863  0.14248  0.0000
C35  C  1.0000  0.40059  0.99606  0.14308  0.0000
C36  C  1.0000  0.46992  0.93142  0.14381  0.0000
C37  C  1.0000  0.60314  0.00389  0.14356  0.0000
C38  C  1.0000  0.67358  0.94165  0.14322  0.0000
C39  C  1.0000  0.80510  0.00716  0.14205  0.0000
C40  C  1.0000  0.87107  0.93928  0.14158  0.0000
N1  N  1.0000  0.58296  0.38938  0.14445  0.0000
N2  N  1.0000  0.80376  0.61089  0.14440  0.0000
N3  N  1.0000  0.67670  0.74645  0.14429  0.0000
N4  N  1.0000  0.39178  0.38985  0.14355  0.0000
N5  N  1.0000  0.26524  0.52426  0.14423  0.0000
N6  N  1.0000  0.48339  0.74079  0.14475  0.0000
Mn1  Mn  1.0000  0.44937  0.57270  0.14496  0.0000
Ru1  Ru  1.0000  0.61227  0.55970  0.14539  0.0000
