data_CNMnSc
_audit_creation_method           'pos2cif.pl'
_cell_length_a               12.3170003891
_cell_length_b               12.3170003891315
_cell_length_c               20
_cell_angle_alpha            90
_cell_angle_beta             90
_cell_angle_gamma            120.010002136348
_symmetry_space_group_H-M        'P1'
_symmetry_Int_Tables_number      '1'
_symmetry_cell_setting           'triclinic'
loop_
_symmetry_equiv_pos_as_xyz
x,y,z

loop_
_atom_site_label
_atom_site_type_symbol
_atom_site_occupancy
_atom_site_fract_x
_atom_site_fract_y
_atom_site_fract_z
_atom_site_U_iso_or_equiv
C1  C  1.0000  0.00072  0.20100  0.14487  0.0000
C2  C  1.0000  0.06723  0.13414  0.14396  0.0000
C3  C  1.0000  0.19987  0.19913  0.14283  0.0000
C4  C  1.0000  0.26435  0.12952  0.14112  0.0000
C5  C  1.0000  0.39649  0.19483  0.13968  0.0000
C6  C  1.0000  0.46570  0.13067  0.13965  0.0000
C7  C  1.0000  0.59886  0.20061  0.14021  0.0000
C8  C  1.0000  0.66753  0.13558  0.14165  0.0000
C9  C  1.0000  0.80027  0.20338  0.14378  0.0000
C10  C  1.0000  0.86806  0.13678  0.14460  0.0000
C11  C  1.0000  0.99794  0.40033  0.14507  0.0000
C12  C  1.0000  0.06530  0.33272  0.14500  0.0000
C13  C  1.0000  0.19817  0.39799  0.14374  0.0000
C14  C  1.0000  0.26649  0.33127  0.14287  0.0000
C15  C  1.0000  0.46116  0.32622  0.13815  0.0000
C16  C  1.0000  0.66060  0.33347  0.14140  0.0000
C17  C  1.0000  0.79545  0.40450  0.14519  0.0000
C18  C  1.0000  0.86441  0.33692  0.14488  0.0000
C19  C  1.0000  -0.00058  0.60095  0.14546  0.0000
C20  C  1.0000  0.06631  0.53322  0.14415  0.0000
C21  C  1.0000  0.20109  0.59504  0.14168  0.0000
C22  C  1.0000  0.86428  0.53907  0.14804  0.0000
C23  C  1.0000  0.00226  0.80129  0.14499  0.0000
C24  C  1.0000  0.06962  0.73384  0.14428  0.0000
C25  C  1.0000  0.20354  0.79702  0.14160  0.0000
C26  C  1.0000  0.27252  0.72940  0.14010  0.0000
C27  C  1.0000  0.40837  0.79907  0.13857  0.0000
C28  C  1.0000  0.60907  0.80785  0.14271  0.0000
C29  C  1.0000  0.80315  0.80480  0.14665  0.0000
C30  C  1.0000  0.86924  0.73613  0.14813  0.0000
C31  C  1.0000  0.00263  0.00147  0.14407  0.0000
C32  C  1.0000  0.06778  0.93340  0.14324  0.0000
C33  C  1.0000  0.20047  0.99759  0.14152  0.0000
C34  C  1.0000  0.26801  0.93054  0.14075  0.0000
C35  C  1.0000  0.40086  0.99760  0.14005  0.0000
C36  C  1.0000  0.46965  0.93224  0.14005  0.0000
C37  C  1.0000  0.60279  0.00271  0.14117  0.0000
C38  C  1.0000  0.67228  0.93916  0.14336  0.0000
C39  C  1.0000  0.80452  0.00504  0.14483  0.0000
C40  C  1.0000  0.87024  0.93684  0.14510  0.0000
N1  N  1.0000  0.58892  0.39158  0.13980  0.0000
N2  N  1.0000  0.80181  0.60666  0.15292  0.0000
N3  N  1.0000  0.67181  0.74100  0.14803  0.0000
N4  N  1.0000  0.40018  0.39671  0.13818  0.0000
N5  N  1.0000  0.26201  0.52695  0.14050  0.0000
N6  N  1.0000  0.48169  0.74173  0.13606  0.0000
Mn1  Mn  1.0000  0.43451  0.56827  0.11511  0.0000
Sc1  Sc  1.0000  0.60939  0.55495  0.18219  0.0000
