data_CNMnTi
_audit_creation_method           'pos2cif.pl'
_cell_length_a               12.3170003891
_cell_length_b               12.3170003891315
_cell_length_c               20
_cell_angle_alpha            90
_cell_angle_beta             90
_cell_angle_gamma            120.010002136348
_symmetry_space_group_H-M        'P1'
_symmetry_Int_Tables_number      '1'
_symmetry_cell_setting           'triclinic'
loop_
_symmetry_equiv_pos_as_xyz
x,y,z

loop_
_atom_site_label
_atom_site_type_symbol
_atom_site_occupancy
_atom_site_fract_x
_atom_site_fract_y
_atom_site_fract_z
_atom_site_U_iso_or_equiv
C1  C  1.0000  0.00102  0.20144  0.14706  0.0000
C2  C  1.0000  0.06755  0.13457  0.14647  0.0000
C3  C  1.0000  0.20025  0.19958  0.14356  0.0000
C4  C  1.0000  0.26451  0.12958  0.14196  0.0000
C5  C  1.0000  0.39640  0.19444  0.13878  0.0000
C6  C  1.0000  0.46562  0.13044  0.13919  0.0000
C7  C  1.0000  0.59896  0.20066  0.13915  0.0000
C8  C  1.0000  0.66755  0.13556  0.14303  0.0000
C9  C  1.0000  0.80026  0.20358  0.14506  0.0000
C10  C  1.0000  0.86827  0.13721  0.14757  0.0000
C11  C  1.0000  0.99794  0.40059  0.14437  0.0000
C12  C  1.0000  0.06556  0.33316  0.14510  0.0000
C13  C  1.0000  0.19854  0.39861  0.14136  0.0000
C14  C  1.0000  0.26692  0.33165  0.14083  0.0000
C15  C  1.0000  0.46078  0.32580  0.13375  0.0000
C16  C  1.0000  0.66065  0.33328  0.13769  0.0000
C17  C  1.0000  0.79514  0.40471  0.14301  0.0000
C18  C  1.0000  0.86422  0.33724  0.14430  0.0000
C19  C  1.0000  0.99856  0.60092  0.14495  0.0000
C20  C  1.0000  0.06589  0.53329  0.14271  0.0000
C21  C  1.0000  0.20098  0.59471  0.13903  0.0000
C22  C  1.0000  0.86303  0.53932  0.14715  0.0000
C23  C  1.0000  0.00204  0.80120  0.14677  0.0000
C24  C  1.0000  0.06948  0.73381  0.14466  0.0000
C25  C  1.0000  0.20347  0.79674  0.14184  0.0000
C26  C  1.0000  0.27267  0.72929  0.13922  0.0000
C27  C  1.0000  0.40869  0.79887  0.13954  0.0000
C28  C  1.0000  0.60946  0.80749  0.14694  0.0000
C29  C  1.0000  0.80357  0.80531  0.15087  0.0000
C30  C  1.0000  0.86904  0.73635  0.15027  0.0000
C31  C  1.0000  0.00294  0.00182  0.14743  0.0000
C32  C  1.0000  0.06783  0.93350  0.14575  0.0000
C33  C  1.0000  0.20047  0.99748  0.14322  0.0000
C34  C  1.0000  0.26800  0.93045  0.14178  0.0000
C35  C  1.0000  0.40084  0.99734  0.14089  0.0000
C36  C  1.0000  0.46973  0.93201  0.14180  0.0000
C37  C  1.0000  0.60289  0.00251  0.14411  0.0000
C38  C  1.0000  0.67248  0.93912  0.14797  0.0000
C39  C  1.0000  0.80472  0.00540  0.14930  0.0000
C40  C  1.0000  0.87048  0.93722  0.14949  0.0000
N1  N  1.0000  0.58886  0.39136  0.13235  0.0000
N2  N  1.0000  0.79981  0.60673  0.15299  0.0000
N3  N  1.0000  0.67240  0.74066  0.15232  0.0000
N4  N  1.0000  0.39995  0.39617  0.13287  0.0000
N5  N  1.0000  0.26180  0.52681  0.13569  0.0000
N6  N  1.0000  0.48249  0.74174  0.13797  0.0000
Mn1  Mn  1.0000  0.44066  0.57165  0.11166  0.0000
Ti1  Ti  1.0000  0.60365  0.54980  0.16813  0.0000
