data_CNMnV
_audit_creation_method           'pos2cif.pl'
_cell_length_a               12.3170003891
_cell_length_b               12.3170003891315
_cell_length_c               20
_cell_angle_alpha            90
_cell_angle_beta             90
_cell_angle_gamma            120.010002136348
_symmetry_space_group_H-M        'P1'
_symmetry_Int_Tables_number      '1'
_symmetry_cell_setting           'triclinic'
loop_
_symmetry_equiv_pos_as_xyz
x,y,z

loop_
_atom_site_label
_atom_site_type_symbol
_atom_site_occupancy
_atom_site_fract_x
_atom_site_fract_y
_atom_site_fract_z
_atom_site_U_iso_or_equiv
C1  C  1.0000  -0.00000  0.20077  0.14336  0.0000
C2  C  1.0000  0.06626  0.13368  0.14237  0.0000
C3  C  1.0000  0.19858  0.19803  0.13977  0.0000
C4  C  1.0000  0.26381  0.12919  0.13853  0.0000
C5  C  1.0000  0.39572  0.19471  0.13761  0.0000
C6  C  1.0000  0.46508  0.13068  0.13928  0.0000
C7  C  1.0000  0.59827  0.20087  0.14034  0.0000
C8  C  1.0000  0.66696  0.13568  0.14235  0.0000
C9  C  1.0000  0.79966  0.20353  0.14369  0.0000
C10  C  1.0000  0.86750  0.13692  0.14461  0.0000
C11  C  1.0000  0.99745  0.40035  0.14314  0.0000
C12  C  1.0000  0.06466  0.33259  0.14233  0.0000
C13  C  1.0000  0.19713  0.39710  0.13983  0.0000
C14  C  1.0000  0.26493  0.32986  0.13828  0.0000
C15  C  1.0000  0.45928  0.32651  0.13738  0.0000
C16  C  1.0000  0.65957  0.33363  0.14223  0.0000
C17  C  1.0000  0.79469  0.40465  0.14506  0.0000
C18  C  1.0000  0.86372  0.33721  0.14393  0.0000
C19  C  1.0000  0.99958  0.60093  0.14489  0.0000
C20  C  1.0000  0.06650  0.53306  0.14262  0.0000
C21  C  1.0000  0.20166  0.59480  0.14029  0.0000
C22  C  1.0000  0.86446  0.53928  0.14783  0.0000
C23  C  1.0000  0.00277  0.80167  0.14513  0.0000
C24  C  1.0000  0.06986  0.73384  0.14398  0.0000
C25  C  1.0000  0.20364  0.79674  0.14165  0.0000
C26  C  1.0000  0.27276  0.72916  0.14075  0.0000
C27  C  1.0000  0.40840  0.79885  0.14141  0.0000
C28  C  1.0000  0.60916  0.80722  0.14832  0.0000
C29  C  1.0000  0.80354  0.80547  0.15005  0.0000
C30  C  1.0000  0.87044  0.73755  0.14948  0.0000
C31  C  1.0000  0.00224  0.00131  0.14387  0.0000
C32  C  1.0000  0.06788  0.93365  0.14283  0.0000
C33  C  1.0000  0.20025  0.99723  0.14030  0.0000
C34  C  1.0000  0.26790  0.93034  0.14051  0.0000
C35  C  1.0000  0.40071  0.99753  0.14035  0.0000
C36  C  1.0000  0.46947  0.93210  0.14196  0.0000
C37  C  1.0000  0.60250  0.00252  0.14338  0.0000
C38  C  1.0000  0.67200  0.93892  0.14669  0.0000
C39  C  1.0000  0.80412  0.00510  0.14664  0.0000
C40  C  1.0000  0.87003  0.93707  0.14680  0.0000
N1  N  1.0000  0.58701  0.39154  0.14329  0.0000
N2  N  1.0000  0.80338  0.60833  0.15348  0.0000
N3  N  1.0000  0.67251  0.74101  0.15469  0.0000
N4  N  1.0000  0.39700  0.39466  0.13431  0.0000
N5  N  1.0000  0.26223  0.52611  0.13750  0.0000
N6  N  1.0000  0.48145  0.74106  0.14198  0.0000
Mn1  Mn  1.0000  0.43721  0.57015  0.12016  0.0000
V1  V  1.0000  0.62312  0.55802  0.17272  0.0000
