data_CNMnW
_audit_creation_method           'pos2cif.pl'
_cell_length_a               12.3170003891
_cell_length_b               12.3170003891315
_cell_length_c               20
_cell_angle_alpha            90
_cell_angle_beta             90
_cell_angle_gamma            120.010002136348
_symmetry_space_group_H-M        'P1'
_symmetry_Int_Tables_number      '1'
_symmetry_cell_setting           'triclinic'
loop_
_symmetry_equiv_pos_as_xyz
x,y,z

loop_
_atom_site_label
_atom_site_type_symbol
_atom_site_occupancy
_atom_site_fract_x
_atom_site_fract_y
_atom_site_fract_z
_atom_site_U_iso_or_equiv
C1  C  1.0000  -0.00060  0.20098  0.13698  0.0000
C2  C  1.0000  0.06513  0.13301  0.13350  0.0000
C3  C  1.0000  0.19676  0.19570  0.13041  0.0000
C4  C  1.0000  0.26277  0.12716  0.12945  0.0000
C5  C  1.0000  0.39444  0.19209  0.13149  0.0000
C6  C  1.0000  0.46439  0.12910  0.13653  0.0000
C7  C  1.0000  0.59743  0.20197  0.14104  0.0000
C8  C  1.0000  0.66654  0.13701  0.14225  0.0000
C9  C  1.0000  0.79927  0.20493  0.14297  0.0000
C10  C  1.0000  0.86753  0.13827  0.14121  0.0000
C11  C  1.0000  0.99660  0.40055  0.14333  0.0000
C12  C  1.0000  0.06350  0.33258  0.13865  0.0000
C13  C  1.0000  0.19606  0.39669  0.13758  0.0000
C14  C  1.0000  0.26190  0.32668  0.13228  0.0000
C15  C  1.0000  0.45494  0.32281  0.13577  0.0000
C16  C  1.0000  0.65725  0.33479  0.14645  0.0000
C17  C  1.0000  0.79268  0.40554  0.14829  0.0000
C18  C  1.0000  0.86226  0.33816  0.14481  0.0000
C19  C  1.0000  -0.00062  0.60082  0.14677  0.0000
C20  C  1.0000  0.06648  0.53274  0.14488  0.0000
C21  C  1.0000  0.20235  0.59283  0.14406  0.0000
C22  C  1.0000  0.86394  0.54081  0.15016  0.0000
C23  C  1.0000  0.00417  0.80181  0.14290  0.0000
C24  C  1.0000  0.07067  0.73339  0.14351  0.0000
C25  C  1.0000  0.20502  0.79533  0.14095  0.0000
C26  C  1.0000  0.27452  0.72780  0.14360  0.0000
C27  C  1.0000  0.41048  0.79671  0.14485  0.0000
C28  C  1.0000  0.61242  0.81145  0.15433  0.0000
C29  C  1.0000  0.80854  0.81037  0.15359  0.0000
C30  C  1.0000  0.87224  0.73923  0.15017  0.0000
C31  C  1.0000  0.00288  0.00159  0.13670  0.0000
C32  C  1.0000  0.06831  0.93315  0.13662  0.0000
C33  C  1.0000  0.20023  0.99542  0.13293  0.0000
C34  C  1.0000  0.26821  0.92863  0.13651  0.0000
C35  C  1.0000  0.40110  0.99592  0.13776  0.0000
C36  C  1.0000  0.47017  0.93065  0.14235  0.0000
C37  C  1.0000  0.60301  0.00370  0.14351  0.0000
C38  C  1.0000  0.67360  0.94150  0.14791  0.0000
C39  C  1.0000  0.80548  0.00725  0.14509  0.0000
C40  C  1.0000  0.87213  0.93973  0.14452  0.0000
N1  N  1.0000  0.58127  0.39066  0.15086  0.0000
N2  N  1.0000  0.80379  0.61070  0.15422  0.0000
N3  N  1.0000  0.68036  0.75034  0.16531  0.0000
N4  N  1.0000  0.39139  0.38809  0.13245  0.0000
N5  N  1.0000  0.26256  0.52425  0.14241  0.0000
N6  N  1.0000  0.48500  0.73930  0.14933  0.0000
Mn1  Mn  1.0000  0.45138  0.56474  0.14217  0.0000
W1  W  1.0000  0.60708  0.56421  0.17854  0.0000
