data_CNMnZr
_audit_creation_method           'pos2cif.pl'
_cell_length_a               12.3170003891
_cell_length_b               12.3170003891315
_cell_length_c               20
_cell_angle_alpha            90
_cell_angle_beta             90
_cell_angle_gamma            120.010002136348
_symmetry_space_group_H-M        'P1'
_symmetry_Int_Tables_number      '1'
_symmetry_cell_setting           'triclinic'
loop_
_symmetry_equiv_pos_as_xyz
x,y,z

loop_
_atom_site_label
_atom_site_type_symbol
_atom_site_occupancy
_atom_site_fract_x
_atom_site_fract_y
_atom_site_fract_z
_atom_site_U_iso_or_equiv
C1  C  1.0000  0.00118  0.20150  0.14566  0.0000
C2  C  1.0000  0.06758  0.13449  0.14482  0.0000
C3  C  1.0000  0.20015  0.19934  0.14210  0.0000
C4  C  1.0000  0.26430  0.12923  0.14022  0.0000
C5  C  1.0000  0.39623  0.19401  0.13677  0.0000
C6  C  1.0000  0.46567  0.13021  0.13758  0.0000
C7  C  1.0000  0.59903  0.20066  0.13796  0.0000
C8  C  1.0000  0.66772  0.13566  0.14189  0.0000
C9  C  1.0000  0.80044  0.20367  0.14394  0.0000
C10  C  1.0000  0.86845  0.13732  0.14621  0.0000
C11  C  1.0000  0.99805  0.40057  0.14380  0.0000
C12  C  1.0000  0.06570  0.33316  0.14416  0.0000
C13  C  1.0000  0.19857  0.39840  0.14068  0.0000
C14  C  1.0000  0.26637  0.33128  0.14024  0.0000
C15  C  1.0000  0.46053  0.32505  0.13250  0.0000
C16  C  1.0000  0.66094  0.33319  0.13737  0.0000
C17  C  1.0000  0.79548  0.40487  0.14320  0.0000
C18  C  1.0000  0.86452  0.33722  0.14366  0.0000
C19  C  1.0000  -0.00118  0.60089  0.14558  0.0000
C20  C  1.0000  0.06616  0.53333  0.14277  0.0000
C21  C  1.0000  0.20117  0.59486  0.13903  0.0000
C22  C  1.0000  0.86349  0.53892  0.14833  0.0000
C23  C  1.0000  0.00202  0.80116  0.14676  0.0000
C24  C  1.0000  0.06957  0.73378  0.14501  0.0000
C25  C  1.0000  0.20339  0.79667  0.14184  0.0000
C26  C  1.0000  0.27267  0.72918  0.13959  0.0000
C27  C  1.0000  0.40868  0.79892  0.14022  0.0000
C28  C  1.0000  0.60960  0.80850  0.14823  0.0000
C29  C  1.0000  0.80438  0.80595  0.15183  0.0000
C30  C  1.0000  0.86922  0.73656  0.15138  0.0000
C31  C  1.0000  0.00307  0.00189  0.14598  0.0000
C32  C  1.0000  0.06774  0.93333  0.14468  0.0000
C33  C  1.0000  0.20040  0.99734  0.14189  0.0000
C34  C  1.0000  0.26802  0.93033  0.14099  0.0000
C35  C  1.0000  0.40083  0.99725  0.13989  0.0000
C36  C  1.0000  0.46982  0.93197  0.14152  0.0000
C37  C  1.0000  0.60303  0.00285  0.14337  0.0000
C38  C  1.0000  0.67273  0.93968  0.14754  0.0000
C39  C  1.0000  0.80501  0.00567  0.14835  0.0000
C40  C  1.0000  0.87088  0.93765  0.14876  0.0000
N1  N  1.0000  0.58882  0.39122  0.13246  0.0000
N2  N  1.0000  0.80032  0.60661  0.15592  0.0000
N3  N  1.0000  0.67322  0.74247  0.15553  0.0000
N4  N  1.0000  0.40004  0.39654  0.13326  0.0000
N5  N  1.0000  0.26209  0.52680  0.13493  0.0000
N6  N  1.0000  0.48259  0.74170  0.13970  0.0000
Mn1  Mn  1.0000  0.43988  0.57233  0.11230  0.0000
Zr1  Zr  1.0000  0.59846  0.54697  0.18152  0.0000
