data_CNMo
_audit_creation_method           'pos2cif.pl'
_cell_length_a               12.3170003891
_cell_length_b               12.3170003891315
_cell_length_c               20
_cell_angle_alpha            90
_cell_angle_beta             90
_cell_angle_gamma            120.010002136348
_symmetry_space_group_H-M        'P1'
_symmetry_Int_Tables_number      '1'
_symmetry_cell_setting           'triclinic'
loop_
_symmetry_equiv_pos_as_xyz
x,y,z

loop_
_atom_site_label
_atom_site_type_symbol
_atom_site_occupancy
_atom_site_fract_x
_atom_site_fract_y
_atom_site_fract_z
_atom_site_U_iso_or_equiv
C1  C  1.0000  -0.00005  0.20176  0.12693  0.0000
C2  C  1.0000  0.06457  0.13247  0.12230  0.0000
C3  C  1.0000  0.19517  0.19308  0.12768  0.0000
C4  C  1.0000  0.26191  0.12533  0.12860  0.0000
C5  C  1.0000  0.39319  0.18993  0.13560  0.0000
C6  C  1.0000  0.46390  0.12832  0.13736  0.0000
C7  C  1.0000  0.59713  0.20253  0.14144  0.0000
C8  C  1.0000  0.66701  0.13826  0.13787  0.0000
C9  C  1.0000  0.79966  0.20592  0.13587  0.0000
C10  C  1.0000  0.86772  0.13966  0.12922  0.0000
C11  C  1.0000  0.99711  0.40070  0.14284  0.0000
C12  C  1.0000  0.06418  0.33263  0.13611  0.0000
C13  C  1.0000  0.19570  0.39356  0.14256  0.0000
C14  C  1.0000  0.25780  0.32119  0.14046  0.0000
C15  C  1.0000  0.45267  0.31836  0.14816  0.0000
C16  C  1.0000  0.65624  0.33446  0.14905  0.0000
C17  C  1.0000  0.79288  0.40575  0.14914  0.0000
C18  C  1.0000  0.86328  0.33906  0.14215  0.0000
C19  C  1.0000  -0.00039  0.60074  0.14968  0.0000
C20  C  1.0000  0.06784  0.53299  0.14900  0.0000
C21  C  1.0000  0.20372  0.59415  0.15137  0.0000
C22  C  1.0000  0.86371  0.53957  0.15217  0.0000
C23  C  1.0000  0.00317  0.80124  0.13850  0.0000
C24  C  1.0000  0.07030  0.73312  0.14428  0.0000
C25  C  1.0000  0.20414  0.79479  0.14313  0.0000
C26  C  1.0000  0.27454  0.72806  0.14991  0.0000
C27  C  1.0000  0.41119  0.79949  0.15102  0.0000
C28  C  1.0000  0.61501  0.81593  0.15284  0.0000
C29  C  1.0000  0.80989  0.81305  0.14542  0.0000
C30  C  1.0000  0.87185  0.74045  0.14621  0.0000
C31  C  1.0000  0.00234  0.00082  0.12355  0.0000
C32  C  1.0000  0.06717  0.93180  0.12825  0.0000
C33  C  1.0000  0.19948  0.99388  0.12885  0.0000
C34  C  1.0000  0.26766  0.92782  0.13610  0.0000
C35  C  1.0000  0.40037  0.99545  0.13772  0.0000
C36  C  1.0000  0.47025  0.93131  0.14283  0.0000
C37  C  1.0000  0.60351  0.00543  0.13914  0.0000
C38  C  1.0000  0.67435  0.94392  0.13910  0.0000
C39  C  1.0000  0.80543  0.00829  0.13127  0.0000
C40  C  1.0000  0.87213  0.94056  0.13110  0.0000
N1  N  1.0000  0.58034  0.38998  0.15722  0.0000
N2  N  1.0000  0.80346  0.61105  0.15499  0.0000
N3  N  1.0000  0.68410  0.75757  0.16097  0.0000
N4  N  1.0000  0.38366  0.37687  0.15551  0.0000
N5  N  1.0000  0.26420  0.52275  0.15232  0.0000
N6  N  1.0000  0.48696  0.74413  0.16064  0.0000
Mo1  Mo  1.0000  0.44888  0.55847  0.17238  0.0000
Mo2  Mo  1.0000  0.61771  0.57450  0.17313  0.0000
