data_CNMoRu
_audit_creation_method           'pos2cif.pl'
_cell_length_a               12.3170003891
_cell_length_b               12.3170003891315
_cell_length_c               20
_cell_angle_alpha            90
_cell_angle_beta             90
_cell_angle_gamma            120.010002136348
_symmetry_space_group_H-M        'P1'
_symmetry_Int_Tables_number      '1'
_symmetry_cell_setting           'triclinic'
loop_
_symmetry_equiv_pos_as_xyz
x,y,z

loop_
_atom_site_label
_atom_site_type_symbol
_atom_site_occupancy
_atom_site_fract_x
_atom_site_fract_y
_atom_site_fract_z
_atom_site_U_iso_or_equiv
C1  C  1.0000  0.99952  0.20101  0.13935  0.0000
C2  C  1.0000  0.06476  0.13252  0.13925  0.0000
C3  C  1.0000  0.19525  0.19379  0.14804  0.0000
C4  C  1.0000  0.26122  0.12565  0.14769  0.0000
C5  C  1.0000  0.39275  0.19070  0.15073  0.0000
C6  C  1.0000  0.46395  0.12934  0.14499  0.0000
C7  C  1.0000  0.59678  0.20171  0.14377  0.0000
C8  C  1.0000  0.66648  0.13748  0.13899  0.0000
C9  C  1.0000  0.79948  0.20530  0.13827  0.0000
C10  C  1.0000  0.86772  0.13914  0.13477  0.0000
C11  C  1.0000  0.99709  0.40050  0.14494  0.0000
C12  C  1.0000  0.06397  0.33231  0.14564  0.0000
C13  C  1.0000  0.19567  0.39425  0.15294  0.0000
C14  C  1.0000  0.25915  0.32326  0.15689  0.0000
C15  C  1.0000  0.45323  0.32040  0.15654  0.0000
C16  C  1.0000  0.65673  0.33486  0.14540  0.0000
C17  C  1.0000  0.79312  0.40593  0.14351  0.0000
C18  C  1.0000  0.86304  0.33874  0.14223  0.0000
C19  C  1.0000  0.00090  0.60098  0.14344  0.0000
C20  C  1.0000  0.06861  0.53325  0.14663  0.0000
C21  C  1.0000  0.20388  0.59355  0.14994  0.0000
C22  C  1.0000  0.86505  0.54045  0.14261  0.0000
C23  C  1.0000  0.00373  0.80151  0.13629  0.0000
C24  C  1.0000  0.07051  0.73313  0.14120  0.0000
C25  C  1.0000  0.20452  0.79533  0.14302  0.0000
C26  C  1.0000  0.27425  0.72818  0.14664  0.0000
C27  C  1.0000  0.40970  0.79973  0.14426  0.0000
C28  C  1.0000  0.61283  0.81191  0.13404  0.0000
C29  C  1.0000  0.80632  0.80890  0.12983  0.0000
C30  C  1.0000  0.87174  0.73854  0.13479  0.0000
C31  C  1.0000  0.00275  0.00161  0.13363  0.0000
C32  C  1.0000  0.06793  0.93312  0.13609  0.0000
C33  C  1.0000  0.19939  0.99502  0.14160  0.0000
C34  C  1.0000  0.26779  0.92862  0.14228  0.0000
C35  C  1.0000  0.40037  0.99645  0.14223  0.0000
C36  C  1.0000  0.46979  0.93208  0.14008  0.0000
C37  C  1.0000  0.60312  0.00488  0.13678  0.0000
C38  C  1.0000  0.67350  0.94271  0.13161  0.0000
C39  C  1.0000  0.80509  0.00758  0.12990  0.0000
C40  C  1.0000  0.87133  0.93950  0.12941  0.0000
N1  N  1.0000  0.58084  0.38967  0.14862  0.0000
N2  N  1.0000  0.80553  0.61053  0.13985  0.0000
N3  N  1.0000  0.67692  0.74831  0.12970  0.0000
N4  N  1.0000  0.38779  0.38409  0.16667  0.0000
N5  N  1.0000  0.26511  0.52353  0.15601  0.0000
N6  N  1.0000  0.48498  0.74361  0.14809  0.0000
Mo1  Mo  1.0000  0.45762  0.57358  0.17519  0.0000
Ru1  Ru  1.0000  0.61521  0.56392  0.13760  0.0000
