data_CNMoY
_audit_creation_method           'pos2cif.pl'
_cell_length_a               12.3170003891
_cell_length_b               12.3170003891315
_cell_length_c               20
_cell_angle_alpha            90
_cell_angle_beta             90
_cell_angle_gamma            120.010002136348
_symmetry_space_group_H-M        'P1'
_symmetry_Int_Tables_number      '1'
_symmetry_cell_setting           'triclinic'
loop_
_symmetry_equiv_pos_as_xyz
x,y,z

loop_
_atom_site_label
_atom_site_type_symbol
_atom_site_occupancy
_atom_site_fract_x
_atom_site_fract_y
_atom_site_fract_z
_atom_site_U_iso_or_equiv
C1  C  1.0000  0.00038  0.20045  0.13720  0.0000
C2  C  1.0000  0.06526  0.13198  0.13696  0.0000
C3  C  1.0000  0.19803  0.19726  0.13502  0.0000
C4  C  1.0000  0.26305  0.12841  0.13545  0.0000
C5  C  1.0000  0.39534  0.19508  0.13369  0.0000
C6  C  1.0000  0.46497  0.13150  0.13651  0.0000
C7  C  1.0000  0.59834  0.20114  0.13714  0.0000
C8  C  1.0000  0.66712  0.13616  0.13918  0.0000
C9  C  1.0000  0.80021  0.20336  0.13863  0.0000
C10  C  1.0000  0.86760  0.13632  0.13840  0.0000
C11  C  1.0000  -0.00115  0.40018  0.13914  0.0000
C12  C  1.0000  0.06626  0.33281  0.13672  0.0000
C13  C  1.0000  0.19941  0.39766  0.13403  0.0000
C14  C  1.0000  0.26509  0.32943  0.13313  0.0000
C15  C  1.0000  0.46039  0.32723  0.13216  0.0000
C16  C  1.0000  0.66010  0.33393  0.13918  0.0000
C17  C  1.0000  0.79571  0.40425  0.14415  0.0000
C18  C  1.0000  0.86505  0.33710  0.14031  0.0000
C19  C  1.0000  0.00140  0.60020  0.14629  0.0000
C20  C  1.0000  0.06950  0.53316  0.14146  0.0000
C21  C  1.0000  0.20482  0.59518  0.14003  0.0000
C22  C  1.0000  0.86618  0.53823  0.15037  0.0000
C23  C  1.0000  0.00076  0.79981  0.14581  0.0000
C24  C  1.0000  0.06895  0.73298  0.14618  0.0000
C25  C  1.0000  0.20275  0.79671  0.14526  0.0000
C26  C  1.0000  0.27194  0.72945  0.14665  0.0000
C27  C  1.0000  0.40604  0.80238  0.15304  0.0000
C28  C  1.0000  0.60756  0.80988  0.15448  0.0000
C29  C  1.0000  0.79968  0.80128  0.15048  0.0000
C30  C  1.0000  0.86737  0.73364  0.15207  0.0000
C31  C  1.0000  -0.00019  -0.00109  0.13991  0.0000
C32  C  1.0000  0.06586  0.93163  0.14130  0.0000
C33  C  1.0000  0.19889  0.99648  0.13937  0.0000
C34  C  1.0000  0.26700  0.93037  0.14235  0.0000
C35  C  1.0000  0.39994  -0.00130  0.14127  0.0000
C36  C  1.0000  0.46863  0.93413  0.14682  0.0000
C37  C  1.0000  0.60223  0.00374  0.14318  0.0000
C38  C  1.0000  0.67137  0.94006  0.14379  0.0000
C39  C  1.0000  0.80297  0.00392  0.14086  0.0000
C40  C  1.0000  0.86698  0.93344  0.14309  0.0000
N1  N  1.0000  0.58796  0.39181  0.13763  0.0000
N2  N  1.0000  0.80426  0.60521  0.16008  0.0000
N3  N  1.0000  0.66731  0.73911  0.16097  0.0000
N4  N  1.0000  0.39810  0.39721  0.13015  0.0000
N5  N  1.0000  0.26844  0.52744  0.13179  0.0000
N6  N  1.0000  0.47903  0.74584  0.16206  0.0000
Mo1  Mo  1.0000  0.46439  0.59332  0.12327  0.0000
Y1  Y  1.0000  0.60571  0.54268  0.20494  0.0000
