data_CNNb
_audit_creation_method           'pos2cif.pl'
_cell_length_a               12.3170003891
_cell_length_b               12.3170003891315
_cell_length_c               20
_cell_angle_alpha            90
_cell_angle_beta             90
_cell_angle_gamma            120.010002136348
_symmetry_space_group_H-M        'P1'
_symmetry_Int_Tables_number      '1'
_symmetry_cell_setting           'triclinic'
loop_
_symmetry_equiv_pos_as_xyz
x,y,z

loop_
_atom_site_label
_atom_site_type_symbol
_atom_site_occupancy
_atom_site_fract_x
_atom_site_fract_y
_atom_site_fract_z
_atom_site_U_iso_or_equiv
C1  C  1.0000  -0.00077  0.20078  0.13145  0.0000
C2  C  1.0000  0.06504  0.13290  0.12825  0.0000
C3  C  1.0000  0.19644  0.19583  0.13011  0.0000
C4  C  1.0000  0.26348  0.12845  0.13066  0.0000
C5  C  1.0000  0.39546  0.19428  0.13468  0.0000
C6  C  1.0000  0.46475  0.13051  0.13755  0.0000
C7  C  1.0000  0.59786  0.20315  0.14129  0.0000
C8  C  1.0000  0.66651  0.13687  0.13868  0.0000
C9  C  1.0000  0.79899  0.20403  0.13793  0.0000
C10  C  1.0000  0.86670  0.13725  0.13255  0.0000
C11  C  1.0000  0.99645  0.39998  0.14376  0.0000
C12  C  1.0000  0.06349  0.33217  0.13789  0.0000
C13  C  1.0000  0.19558  0.39550  0.14161  0.0000
C14  C  1.0000  0.26084  0.32648  0.13674  0.0000
C15  C  1.0000  0.45694  0.32548  0.14247  0.0000
C16  C  1.0000  0.65775  0.33589  0.14752  0.0000
C17  C  1.0000  0.79392  0.40563  0.14883  0.0000
C18  C  1.0000  0.86298  0.33766  0.14340  0.0000
C19  C  1.0000  0.00043  0.60109  0.14828  0.0000
C20  C  1.0000  0.06701  0.53276  0.14794  0.0000
C21  C  1.0000  0.20219  0.59433  0.15080  0.0000
C22  C  1.0000  0.86524  0.53953  0.15141  0.0000
C23  C  1.0000  0.00389  0.80168  0.13872  0.0000
C24  C  1.0000  0.07097  0.73388  0.14424  0.0000
C25  C  1.0000  0.20445  0.79623  0.14355  0.0000
C26  C  1.0000  0.27351  0.72825  0.14883  0.0000
C27  C  1.0000  0.40968  0.79797  0.14798  0.0000
C28  C  1.0000  0.61056  0.80846  0.14411  0.0000
C29  C  1.0000  0.80665  0.80747  0.13858  0.0000
C30  C  1.0000  0.87185  0.73841  0.14311  0.0000
C31  C  1.0000  0.00228  0.00084  0.12862  0.0000
C32  C  1.0000  0.06811  0.93300  0.13178  0.0000
C33  C  1.0000  0.20067  0.99653  0.13225  0.0000
C34  C  1.0000  0.26842  0.92982  0.13781  0.0000
C35  C  1.0000  0.40093  0.99698  0.13847  0.0000
C36  C  1.0000  0.46958  0.93071  0.14165  0.0000
C37  C  1.0000  0.60269  0.00334  0.13821  0.0000
C38  C  1.0000  0.67200  0.93954  0.13594  0.0000
C39  C  1.0000  0.80393  0.00533  0.13167  0.0000
C40  C  1.0000  0.87094  0.93795  0.13125  0.0000
N1  N  1.0000  0.58367  0.39446  0.15245  0.0000
N2  N  1.0000  0.80520  0.61021  0.15496  0.0000
N3  N  1.0000  0.67755  0.74620  0.14723  0.0000
N4  N  1.0000  0.39007  0.38790  0.14492  0.0000
N5  N  1.0000  0.26228  0.52367  0.15354  0.0000
N6  N  1.0000  0.48369  0.73940  0.15345  0.0000
Nb1  Nb  1.0000  0.43776  0.55544  0.19213  0.0000
Nb2  Nb  1.0000  0.62842  0.57690  0.19271  0.0000
