data_CNNbOs
_audit_creation_method           'pos2cif.pl'
_cell_length_a               12.3170003891
_cell_length_b               12.3170003891315
_cell_length_c               20
_cell_angle_alpha            90
_cell_angle_beta             90
_cell_angle_gamma            120.010002136348
_symmetry_space_group_H-M        'P1'
_symmetry_Int_Tables_number      '1'
_symmetry_cell_setting           'triclinic'
loop_
_symmetry_equiv_pos_as_xyz
x,y,z

loop_
_atom_site_label
_atom_site_type_symbol
_atom_site_occupancy
_atom_site_fract_x
_atom_site_fract_y
_atom_site_fract_z
_atom_site_U_iso_or_equiv
C1  C  1.0000  0.99942  0.20150  0.13478  0.0000
C2  C  1.0000  0.06531  0.13335  0.13336  0.0000
C3  C  1.0000  0.19490  0.19391  0.14563  0.0000
C4  C  1.0000  0.26115  0.12575  0.14613  0.0000
C5  C  1.0000  0.39237  0.18997  0.15312  0.0000
C6  C  1.0000  0.46398  0.12895  0.14652  0.0000
C7  C  1.0000  0.59679  0.20193  0.14557  0.0000
C8  C  1.0000  0.66629  0.13758  0.13843  0.0000
C9  C  1.0000  0.79917  0.20547  0.13641  0.0000
C10  C  1.0000  0.86744  0.13931  0.13022  0.0000
C11  C  1.0000  0.99658  0.40062  0.14474  0.0000
C12  C  1.0000  0.06326  0.33219  0.14426  0.0000
C13  C  1.0000  0.19471  0.39449  0.15462  0.0000
C14  C  1.0000  0.25781  0.32213  0.15966  0.0000
C15  C  1.0000  0.45171  0.31848  0.16292  0.0000
C16  C  1.0000  0.65617  0.33532  0.14905  0.0000
C17  C  1.0000  0.79256  0.40627  0.14555  0.0000
C18  C  1.0000  0.86217  0.33869  0.14210  0.0000
C19  C  1.0000  0.00132  0.60141  0.14314  0.0000
C20  C  1.0000  0.06782  0.53314  0.14724  0.0000
C21  C  1.0000  0.20321  0.59305  0.15161  0.0000
C22  C  1.0000  0.86590  0.54139  0.14342  0.0000
C23  C  1.0000  0.00533  0.80226  0.13126  0.0000
C24  C  1.0000  0.07143  0.73364  0.13885  0.0000
C25  C  1.0000  0.20542  0.79554  0.14170  0.0000
C26  C  1.0000  0.27487  0.72816  0.14748  0.0000
C27  C  1.0000  0.41046  0.79858  0.14572  0.0000
C28  C  1.0000  0.61218  0.81086  0.13341  0.0000
C29  C  1.0000  0.80745  0.80966  0.12519  0.0000
C30  C  1.0000  0.87339  0.73947  0.13101  0.0000
C31  C  1.0000  0.00362  0.00249  0.12612  0.0000
C32  C  1.0000  0.06910  0.93394  0.12964  0.0000
C33  C  1.0000  0.20014  0.99560  0.13765  0.0000
C34  C  1.0000  0.26824  0.92867  0.14051  0.0000
C35  C  1.0000  0.40085  0.99625  0.14246  0.0000
C36  C  1.0000  0.47017  0.93166  0.14065  0.0000
C37  C  1.0000  0.60313  0.00449  0.13577  0.0000
C38  C  1.0000  0.67307  0.94189  0.12847  0.0000
C39  C  1.0000  0.80491  0.00776  0.12440  0.0000
C40  C  1.0000  0.87191  0.94016  0.12245  0.0000
N1  N  1.0000  0.57950  0.39020  0.15532  0.0000
N2  N  1.0000  0.80792  0.61240  0.14013  0.0000
N3  N  1.0000  0.67806  0.74794  0.12981  0.0000
N4  N  1.0000  0.38376  0.37888  0.17554  0.0000
N5  N  1.0000  0.26230  0.52326  0.15957  0.0000
N6  N  1.0000  0.48614  0.74289  0.14970  0.0000
Nb1  Nb  1.0000  0.45650  0.57175  0.19446  0.0000
Os1  Os  1.0000  0.61716  0.56785  0.14617  0.0000
