data_CNNbPd
_audit_creation_method           'pos2cif.pl'
_cell_length_a               12.3170003891
_cell_length_b               12.3170003891315
_cell_length_c               20
_cell_angle_alpha            90
_cell_angle_beta             90
_cell_angle_gamma            120.010002136348
_symmetry_space_group_H-M        'P1'
_symmetry_Int_Tables_number      '1'
_symmetry_cell_setting           'triclinic'
loop_
_symmetry_equiv_pos_as_xyz
x,y,z

loop_
_atom_site_label
_atom_site_type_symbol
_atom_site_occupancy
_atom_site_fract_x
_atom_site_fract_y
_atom_site_fract_z
_atom_site_U_iso_or_equiv
C1  C  1.0000  0.99925  0.20065  0.13685  0.0000
C2  C  1.0000  0.06486  0.13268  0.13581  0.0000
C3  C  1.0000  0.19566  0.19504  0.14429  0.0000
C4  C  1.0000  0.26186  0.12732  0.14480  0.0000
C5  C  1.0000  0.39333  0.19288  0.15056  0.0000
C6  C  1.0000  0.46422  0.13071  0.14613  0.0000
C7  C  1.0000  0.59718  0.20160  0.14612  0.0000
C8  C  1.0000  0.66629  0.13672  0.14008  0.0000
C9  C  1.0000  0.79912  0.20401  0.13909  0.0000
C10  C  1.0000  0.86698  0.13760  0.13428  0.0000
C11  C  1.0000  -0.00302  0.39990  0.14510  0.0000
C12  C  1.0000  0.06382  0.33201  0.14402  0.0000
C13  C  1.0000  0.19530  0.39421  0.15258  0.0000
C14  C  1.0000  0.25975  0.32478  0.15505  0.0000
C15  C  1.0000  0.45444  0.32291  0.15935  0.0000
C16  C  1.0000  0.65748  0.33493  0.14978  0.0000
C17  C  1.0000  0.79384  0.40528  0.14482  0.0000
C18  C  1.0000  0.86307  0.33771  0.14307  0.0000
C19  C  1.0000  0.00286  0.60110  0.14169  0.0000
C20  C  1.0000  0.06900  0.53294  0.14712  0.0000
C21  C  1.0000  0.20350  0.59405  0.15211  0.0000
C22  C  1.0000  0.86759  0.54005  0.13978  0.0000
C23  C  1.0000  0.00461  0.80194  0.13322  0.0000
C24  C  1.0000  0.07109  0.73353  0.13863  0.0000
C25  C  1.0000  0.20462  0.79642  0.14134  0.0000
C26  C  1.0000  0.27328  0.72860  0.14627  0.0000
C27  C  1.0000  0.40797  0.80026  0.14264  0.0000
C28  C  1.0000  0.60985  0.80852  0.13440  0.0000
C29  C  1.0000  0.80457  0.80609  0.12871  0.0000
C30  C  1.0000  0.87259  0.73735  0.13040  0.0000
C31  C  1.0000  0.00206  0.00096  0.13104  0.0000
C32  C  1.0000  0.06828  0.93354  0.13341  0.0000
C33  C  1.0000  0.19993  0.99646  0.13892  0.0000
C34  C  1.0000  0.26801  0.92984  0.14054  0.0000
C35  C  1.0000  0.40040  -0.00225  0.14194  0.0000
C36  C  1.0000  0.46903  0.93259  0.13953  0.0000
C37  C  1.0000  0.60248  0.00380  0.13684  0.0000
C38  C  1.0000  0.67194  0.94050  0.13217  0.0000
C39  C  1.0000  0.80383  0.00563  0.13015  0.0000
C40  C  1.0000  0.87010  0.93744  0.12840  0.0000
N1  N  1.0000  0.58207  0.38912  0.15751  0.0000
N2  N  1.0000  0.81053  0.60965  0.13245  0.0000
N3  N  1.0000  0.67410  0.74470  0.13140  0.0000
N4  N  1.0000  0.38752  0.38659  0.16816  0.0000
N5  N  1.0000  0.26367  0.52347  0.16161  0.0000
N6  N  1.0000  0.48104  0.74221  0.14457  0.0000
Nb1  Nb  1.0000  0.45112  0.57971  0.19033  0.0000
Pd1  Pd  1.0000  0.62597  0.56543  0.14487  0.0000
