data_CNNbPt
_audit_creation_method           'pos2cif.pl'
_cell_length_a               12.3170003891
_cell_length_b               12.3170003891315
_cell_length_c               20
_cell_angle_alpha            90
_cell_angle_beta             90
_cell_angle_gamma            120.010002136348
_symmetry_space_group_H-M        'P1'
_symmetry_Int_Tables_number      '1'
_symmetry_cell_setting           'triclinic'
loop_
_symmetry_equiv_pos_as_xyz
x,y,z

loop_
_atom_site_label
_atom_site_type_symbol
_atom_site_occupancy
_atom_site_fract_x
_atom_site_fract_y
_atom_site_fract_z
_atom_site_U_iso_or_equiv
C1  C  1.0000  0.99923  0.20092  0.13308  0.0000
C2  C  1.0000  0.06518  0.13315  0.13114  0.0000
C3  C  1.0000  0.19560  0.19498  0.14092  0.0000
C4  C  1.0000  0.26191  0.12724  0.14214  0.0000
C5  C  1.0000  0.39303  0.19258  0.15010  0.0000
C6  C  1.0000  0.46429  0.13060  0.14612  0.0000
C7  C  1.0000  0.59714  0.20198  0.14689  0.0000
C8  C  1.0000  0.66629  0.13682  0.14028  0.0000
C9  C  1.0000  0.79902  0.20429  0.13801  0.0000
C10  C  1.0000  0.86686  0.13790  0.13157  0.0000
C11  C  1.0000  -0.00342  0.39999  0.14409  0.0000
C12  C  1.0000  0.06342  0.33201  0.14161  0.0000
C13  C  1.0000  0.19453  0.39368  0.15114  0.0000
C14  C  1.0000  0.25849  0.32378  0.15400  0.0000
C15  C  1.0000  0.45252  0.32163  0.16099  0.0000
C16  C  1.0000  0.65730  0.33536  0.15135  0.0000
C17  C  1.0000  0.79352  0.40582  0.14602  0.0000
C18  C  1.0000  0.86279  0.33795  0.14264  0.0000
C19  C  1.0000  0.00269  0.60138  0.14175  0.0000
C20  C  1.0000  0.06868  0.53302  0.14701  0.0000
C21  C  1.0000  0.20305  0.59375  0.15269  0.0000
C22  C  1.0000  0.86738  0.54042  0.14117  0.0000
C23  C  1.0000  0.00560  0.80244  0.13076  0.0000
C24  C  1.0000  0.07168  0.73373  0.13759  0.0000
C25  C  1.0000  0.20518  0.79633  0.14082  0.0000
C26  C  1.0000  0.27375  0.72839  0.14765  0.0000
C27  C  1.0000  0.40888  0.79998  0.14581  0.0000
C28  C  1.0000  0.61072  0.80826  0.13776  0.0000
C29  C  1.0000  0.80638  0.80743  0.12851  0.0000
C30  C  1.0000  0.87388  0.73867  0.13006  0.0000
C31  C  1.0000  0.00281  0.00154  0.12638  0.0000
C32  C  1.0000  0.06906  0.93399  0.12929  0.0000
C33  C  1.0000  0.20054  0.99662  0.13567  0.0000
C34  C  1.0000  0.26847  0.92979  0.13916  0.0000
C35  C  1.0000  0.40073  -0.00241  0.14183  0.0000
C36  C  1.0000  0.46945  0.93220  0.14112  0.0000
C37  C  1.0000  0.60282  0.00371  0.13779  0.0000
C38  C  1.0000  0.67218  0.94007  0.13252  0.0000
C39  C  1.0000  0.80397  0.00586  0.12806  0.0000
C40  C  1.0000  0.87085  0.93832  0.12549  0.0000
N1  N  1.0000  0.58088  0.38944  0.16000  0.0000
N2  N  1.0000  0.81060  0.61101  0.13524  0.0000
N3  N  1.0000  0.67657  0.74540  0.13530  0.0000
N4  N  1.0000  0.38469  0.38411  0.17061  0.0000
N5  N  1.0000  0.26242  0.52242  0.16183  0.0000
N6  N  1.0000  0.48275  0.74235  0.15068  0.0000
Nb1  Nb  1.0000  0.44665  0.57553  0.19543  0.0000
Pt1  Pt  1.0000  0.62604  0.56672  0.15190  0.0000
