data_CNNbRe
_audit_creation_method           'pos2cif.pl'
_cell_length_a               12.3170003891
_cell_length_b               12.3170003891315
_cell_length_c               20
_cell_angle_alpha            90
_cell_angle_beta             90
_cell_angle_gamma            120.010002136348
_symmetry_space_group_H-M        'P1'
_symmetry_Int_Tables_number      '1'
_symmetry_cell_setting           'triclinic'
loop_
_symmetry_equiv_pos_as_xyz
x,y,z

loop_
_atom_site_label
_atom_site_type_symbol
_atom_site_occupancy
_atom_site_fract_x
_atom_site_fract_y
_atom_site_fract_z
_atom_site_U_iso_or_equiv
C1  C  1.0000  0.00184  0.20307  0.13189  0.0000
C2  C  1.0000  0.06811  0.13546  0.12995  0.0000
C3  C  1.0000  0.20040  0.19921  0.13611  0.0000
C4  C  1.0000  0.26289  0.12776  0.13856  0.0000
C5  C  1.0000  0.39431  0.19145  0.14687  0.0000
C6  C  1.0000  0.46501  0.12837  0.14478  0.0000
C7  C  1.0000  0.59761  0.19853  0.14647  0.0000
C8  C  1.0000  0.66734  0.13521  0.13976  0.0000
C9  C  1.0000  0.80067  0.20465  0.13770  0.0000
C10  C  1.0000  0.86886  0.13912  0.13059  0.0000
C11  C  1.0000  0.99804  0.40092  0.14492  0.0000
C12  C  1.0000  0.06633  0.33434  0.13998  0.0000
C13  C  1.0000  0.19952  0.39819  0.14734  0.0000
C14  C  1.0000  0.26647  0.33082  0.14510  0.0000
C15  C  1.0000  0.45659  0.31850  0.15773  0.0000
C16  C  1.0000  0.65899  0.33121  0.15226  0.0000
C17  C  1.0000  0.79387  0.40473  0.14895  0.0000
C18  C  1.0000  0.86419  0.33799  0.14386  0.0000
C19  C  1.0000  0.99815  0.60117  0.14648  0.0000
C20  C  1.0000  0.06678  0.53374  0.14953  0.0000
C21  C  1.0000  0.20178  0.59435  0.15491  0.0000
C22  C  1.0000  0.86155  0.53960  0.14707  0.0000
C23  C  1.0000  0.00195  0.80130  0.13537  0.0000
C24  C  1.0000  0.06866  0.73336  0.14269  0.0000
C25  C  1.0000  0.20333  0.79613  0.14462  0.0000
C26  C  1.0000  0.27325  0.72908  0.15124  0.0000
C27  C  1.0000  0.40895  0.79953  0.14835  0.0000
C28  C  1.0000  0.61076  0.80901  0.13445  0.0000
C29  C  1.0000  0.80403  0.80707  0.12788  0.0000
C30  C  1.0000  0.86921  0.73799  0.13501  0.0000
C31  C  1.0000  0.00331  0.00260  0.12756  0.0000
C32  C  1.0000  0.06748  0.93340  0.13139  0.0000
C33  C  1.0000  0.19972  0.99658  0.13582  0.0000
C34  C  1.0000  0.26731  0.92906  0.14062  0.0000
C35  C  1.0000  0.40021  0.99594  0.14174  0.0000
C36  C  1.0000  0.46962  0.93142  0.14146  0.0000
C37  C  1.0000  0.60317  0.00281  0.13686  0.0000
C38  C  1.0000  0.67295  0.94012  0.12993  0.0000
C39  C  1.0000  0.80498  0.00696  0.12601  0.0000
C40  C  1.0000  0.87061  0.93865  0.12546  0.0000
N1  N  1.0000  0.58428  0.38471  0.15967  0.0000
N2  N  1.0000  0.79998  0.61004  0.14419  0.0000
N3  N  1.0000  0.67252  0.74199  0.12866  0.0000
N4  N  1.0000  0.39665  0.39212  0.16260  0.0000
N5  N  1.0000  0.26351  0.52514  0.16114  0.0000
N6  N  1.0000  0.48567  0.74464  0.15348  0.0000
Nb1  Nb  1.0000  0.45329  0.58029  0.20038  0.0000
Re1  Re  1.0000  0.60234  0.55278  0.14456  0.0000
