data_CNNbRh
_audit_creation_method           'pos2cif.pl'
_cell_length_a               12.3170003891
_cell_length_b               12.3170003891315
_cell_length_c               20
_cell_angle_alpha            90
_cell_angle_beta             90
_cell_angle_gamma            120.010002136348
_symmetry_space_group_H-M        'P1'
_symmetry_Int_Tables_number      '1'
_symmetry_cell_setting           'triclinic'
loop_
_symmetry_equiv_pos_as_xyz
x,y,z

loop_
_atom_site_label
_atom_site_type_symbol
_atom_site_occupancy
_atom_site_fract_x
_atom_site_fract_y
_atom_site_fract_z
_atom_site_U_iso_or_equiv
C1  C  1.0000  0.99928  0.20095  0.13841  0.0000
C2  C  1.0000  0.06470  0.13271  0.13770  0.0000
C3  C  1.0000  0.19526  0.19442  0.14642  0.0000
C4  C  1.0000  0.26146  0.12649  0.14617  0.0000
C5  C  1.0000  0.39311  0.19167  0.15035  0.0000
C6  C  1.0000  0.46403  0.12981  0.14507  0.0000
C7  C  1.0000  0.59682  0.20158  0.14438  0.0000
C8  C  1.0000  0.66621  0.13702  0.13904  0.0000
C9  C  1.0000  0.79915  0.20464  0.13842  0.0000
C10  C  1.0000  0.86725  0.13845  0.13446  0.0000
C11  C  1.0000  -0.00315  0.40016  0.14524  0.0000
C12  C  1.0000  0.06368  0.33221  0.14535  0.0000
C13  C  1.0000  0.19545  0.39450  0.15347  0.0000
C14  C  1.0000  0.25907  0.32392  0.15648  0.0000
C15  C  1.0000  0.45412  0.32141  0.15734  0.0000
C16  C  1.0000  0.65693  0.33504  0.14707  0.0000
C17  C  1.0000  0.79334  0.40559  0.14418  0.0000
C18  C  1.0000  0.86286  0.33819  0.14261  0.0000
C19  C  1.0000  0.00182  0.60112  0.14272  0.0000
C20  C  1.0000  0.06863  0.53308  0.14682  0.0000
C21  C  1.0000  0.20359  0.59368  0.15088  0.0000
C22  C  1.0000  0.86612  0.54042  0.14187  0.0000
C23  C  1.0000  0.00416  0.80183  0.13502  0.0000
C24  C  1.0000  0.07079  0.73338  0.14004  0.0000
C25  C  1.0000  0.20458  0.79589  0.14192  0.0000
C26  C  1.0000  0.27372  0.72832  0.14590  0.0000
C27  C  1.0000  0.40872  0.79937  0.14247  0.0000
C28  C  1.0000  0.61137  0.81017  0.13335  0.0000
C29  C  1.0000  0.80559  0.80778  0.12974  0.0000
C30  C  1.0000  0.87216  0.73819  0.13357  0.0000
C31  C  1.0000  0.00245  0.00145  0.13226  0.0000
C32  C  1.0000  0.06813  0.93347  0.13461  0.0000
C33  C  1.0000  0.19971  0.99589  0.14003  0.0000
C34  C  1.0000  0.26785  0.92918  0.14108  0.0000
C35  C  1.0000  0.40026  0.99680  0.14170  0.0000
C36  C  1.0000  0.46926  0.93201  0.13923  0.0000
C37  C  1.0000  0.60263  0.00417  0.13620  0.0000
C38  C  1.0000  0.67269  0.94160  0.13132  0.0000
C39  C  1.0000  0.80444  0.00675  0.12983  0.0000
C40  C  1.0000  0.87075  0.93865  0.12892  0.0000
N1  N  1.0000  0.58139  0.38977  0.15203  0.0000
N2  N  1.0000  0.80769  0.61020  0.13791  0.0000
N3  N  1.0000  0.67576  0.74680  0.13054  0.0000
N4  N  1.0000  0.38744  0.38463  0.16775  0.0000
N5  N  1.0000  0.26455  0.52408  0.15929  0.0000
N6  N  1.0000  0.48289  0.74228  0.14434  0.0000
Nb1  Nb  1.0000  0.45713  0.57575  0.18660  0.0000
Rh1  Rh  1.0000  0.62117  0.56568  0.14186  0.0000
