data_CNNbTa
_audit_creation_method           'pos2cif.pl'
_cell_length_a               12.3170003891
_cell_length_b               12.3170003891315
_cell_length_c               20
_cell_angle_alpha            90
_cell_angle_beta             90
_cell_angle_gamma            120.010002136348
_symmetry_space_group_H-M        'P1'
_symmetry_Int_Tables_number      '1'
_symmetry_cell_setting           'triclinic'
loop_
_symmetry_equiv_pos_as_xyz
x,y,z

loop_
_atom_site_label
_atom_site_type_symbol
_atom_site_occupancy
_atom_site_fract_x
_atom_site_fract_y
_atom_site_fract_z
_atom_site_U_iso_or_equiv
C1  C  1.0000  0.99886  0.20044  0.13183  0.0000
C2  C  1.0000  0.06507  0.13295  0.12905  0.0000
C3  C  1.0000  0.19671  0.19615  0.13118  0.0000
C4  C  1.0000  0.26379  0.12901  0.13181  0.0000
C5  C  1.0000  0.39583  0.19530  0.13611  0.0000
C6  C  1.0000  0.46489  0.13087  0.13840  0.0000
C7  C  1.0000  0.59784  0.20309  0.14167  0.0000
C8  C  1.0000  0.66625  0.13659  0.13885  0.0000
C9  C  1.0000  0.79873  0.20373  0.13787  0.0000
C10  C  1.0000  0.86638  0.13679  0.13298  0.0000
C11  C  1.0000  0.99620  0.39990  0.14242  0.0000
C12  C  1.0000  0.06306  0.33202  0.13735  0.0000
C13  C  1.0000  0.19526  0.39577  0.14092  0.0000
C14  C  1.0000  0.26119  0.32685  0.13780  0.0000
C15  C  1.0000  0.45694  0.32629  0.14441  0.0000
C16  C  1.0000  0.65794  0.33622  0.14788  0.0000
C17  C  1.0000  0.79375  0.40538  0.14774  0.0000
C18  C  1.0000  0.86254  0.33726  0.14252  0.0000
C19  C  1.0000  0.00028  0.60102  0.14639  0.0000
C20  C  1.0000  0.06665  0.53261  0.14620  0.0000
C21  C  1.0000  0.20170  0.59395  0.14903  0.0000
C22  C  1.0000  0.86542  0.53954  0.14904  0.0000
C23  C  1.0000  0.00431  0.80182  0.13779  0.0000
C24  C  1.0000  0.07109  0.73390  0.14280  0.0000
C25  C  1.0000  0.20474  0.79643  0.14280  0.0000
C26  C  1.0000  0.27358  0.72830  0.14801  0.0000
C27  C  1.0000  0.40957  0.79756  0.14809  0.0000
C28  C  1.0000  0.61011  0.80752  0.14493  0.0000
C29  C  1.0000  0.80658  0.80722  0.13831  0.0000
C30  C  1.0000  0.87218  0.73839  0.14119  0.0000
C31  C  1.0000  0.00241  0.00097  0.12929  0.0000
C32  C  1.0000  0.06858  0.93340  0.13204  0.0000
C33  C  1.0000  0.20105  0.99697  0.13282  0.0000
C34  C  1.0000  0.26862  0.93005  0.13791  0.0000
C35  C  1.0000  0.40117  -0.00272  0.13884  0.0000
C36  C  1.0000  0.46960  0.93080  0.14190  0.0000
C37  C  1.0000  0.60249  0.00287  0.13859  0.0000
C38  C  1.0000  0.67162  0.93853  0.13656  0.0000
C39  C  1.0000  0.80371  0.00487  0.13239  0.0000
C40  C  1.0000  0.87085  0.93781  0.13179  0.0000
N1  N  1.0000  0.58423  0.39530  0.15441  0.0000
N2  N  1.0000  0.80467  0.60961  0.15111  0.0000
N3  N  1.0000  0.67747  0.74461  0.14821  0.0000
N4  N  1.0000  0.39011  0.38916  0.14691  0.0000
N5  N  1.0000  0.26208  0.52402  0.15080  0.0000
N6  N  1.0000  0.48336  0.73893  0.15411  0.0000
Nb1  Nb  1.0000  0.43492  0.55555  0.19554  0.0000
Ta1  Ta  1.0000  0.63265  0.57756  0.19337  0.0000
