data_CNNbTc
_audit_creation_method           'pos2cif.pl'
_cell_length_a               12.3170003891
_cell_length_b               12.3170003891315
_cell_length_c               20
_cell_angle_alpha            90
_cell_angle_beta             90
_cell_angle_gamma            120.010002136348
_symmetry_space_group_H-M        'P1'
_symmetry_Int_Tables_number      '1'
_symmetry_cell_setting           'triclinic'
loop_
_symmetry_equiv_pos_as_xyz
x,y,z

loop_
_atom_site_label
_atom_site_type_symbol
_atom_site_occupancy
_atom_site_fract_x
_atom_site_fract_y
_atom_site_fract_z
_atom_site_U_iso_or_equiv
C1  C  1.0000  -0.00058  0.20154  0.12670  0.0000
C2  C  1.0000  0.06429  0.13248  0.12203  0.0000
C3  C  1.0000  0.19520  0.19368  0.12778  0.0000
C4  C  1.0000  0.26227  0.12618  0.12838  0.0000
C5  C  1.0000  0.39389  0.19110  0.13526  0.0000
C6  C  1.0000  0.46429  0.12901  0.13642  0.0000
C7  C  1.0000  0.59708  0.20257  0.14118  0.0000
C8  C  1.0000  0.66669  0.13797  0.13729  0.0000
C9  C  1.0000  0.79941  0.20560  0.13539  0.0000
C10  C  1.0000  0.86720  0.13918  0.12878  0.0000
C11  C  1.0000  0.99682  0.40057  0.14184  0.0000
C12  C  1.0000  0.06376  0.33259  0.13566  0.0000
C13  C  1.0000  0.19569  0.39430  0.14227  0.0000
C14  C  1.0000  0.25811  0.32170  0.14168  0.0000
C15  C  1.0000  0.45302  0.31866  0.15028  0.0000
C16  C  1.0000  0.65626  0.33494  0.14990  0.0000
C17  C  1.0000  0.79279  0.40568  0.14875  0.0000
C18  C  1.0000  0.86282  0.33885  0.14147  0.0000
C19  C  1.0000  0.00044  0.60115  0.14795  0.0000
C20  C  1.0000  0.06779  0.53305  0.14767  0.0000
C21  C  1.0000  0.20312  0.59372  0.14985  0.0000
C22  C  1.0000  0.86463  0.54027  0.15061  0.0000
C23  C  1.0000  0.00369  0.80158  0.13691  0.0000
C24  C  1.0000  0.07060  0.73336  0.14229  0.0000
C25  C  1.0000  0.20480  0.79545  0.14130  0.0000
C26  C  1.0000  0.27462  0.72853  0.14860  0.0000
C27  C  1.0000  0.41080  0.79976  0.15109  0.0000
C28  C  1.0000  0.61458  0.81463  0.15328  0.0000
C29  C  1.0000  0.80837  0.81160  0.14463  0.0000
C30  C  1.0000  0.87211  0.73986  0.14456  0.0000
C31  C  1.0000  0.00191  0.00058  0.12289  0.0000
C32  C  1.0000  0.06752  0.93233  0.12729  0.0000
C33  C  1.0000  0.19988  0.99478  0.12793  0.0000
C34  C  1.0000  0.26799  0.92839  0.13466  0.0000
C35  C  1.0000  0.40060  0.99588  0.13638  0.0000
C36  C  1.0000  0.46998  0.93157  0.14204  0.0000
C37  C  1.0000  0.60335  0.00503  0.13844  0.0000
C38  C  1.0000  0.67378  0.94275  0.13820  0.0000
C39  C  1.0000  0.80469  0.00743  0.13044  0.0000
C40  C  1.0000  0.87113  0.93939  0.13018  0.0000
N1  N  1.0000  0.58024  0.38972  0.16011  0.0000
N2  N  1.0000  0.80569  0.61136  0.15227  0.0000
N3  N  1.0000  0.68335  0.75596  0.16208  0.0000
N4  N  1.0000  0.38237  0.37524  0.16048  0.0000
N5  N  1.0000  0.26416  0.52373  0.15045  0.0000
N6  N  1.0000  0.48669  0.74538  0.16341  0.0000
Nb1  Nb  1.0000  0.44829  0.55871  0.18746  0.0000
Tc1  Tc  1.0000  0.62084  0.57335  0.17742  0.0000
