data_CNNbTi
_audit_creation_method           'pos2cif.pl'
_cell_length_a               12.3170003891
_cell_length_b               12.3170003891315
_cell_length_c               20
_cell_angle_alpha            90
_cell_angle_beta             90
_cell_angle_gamma            120.010002136348
_symmetry_space_group_H-M        'P1'
_symmetry_Int_Tables_number      '1'
_symmetry_cell_setting           'triclinic'
loop_
_symmetry_equiv_pos_as_xyz
x,y,z

loop_
_atom_site_label
_atom_site_type_symbol
_atom_site_occupancy
_atom_site_fract_x
_atom_site_fract_y
_atom_site_fract_z
_atom_site_U_iso_or_equiv
C1  C  1.0000  -0.00125  0.19958  0.13688  0.0000
C2  C  1.0000  0.06451  0.13204  0.13650  0.0000
C3  C  1.0000  0.19687  0.19669  0.13974  0.0000
C4  C  1.0000  0.26334  0.12933  0.13958  0.0000
C5  C  1.0000  0.39577  0.19671  0.14226  0.0000
C6  C  1.0000  0.46460  0.13195  0.14080  0.0000
C7  C  1.0000  0.59761  0.20238  0.14155  0.0000
C8  C  1.0000  0.66598  0.13621  0.13737  0.0000
C9  C  1.0000  0.79875  0.20276  0.13758  0.0000
C10  C  1.0000  0.86628  0.13573  0.13545  0.0000
C11  C  1.0000  -0.00311  0.39927  0.14177  0.0000
C12  C  1.0000  0.06373  0.33148  0.14053  0.0000
C13  C  1.0000  0.19584  0.39557  0.14589  0.0000
C14  C  1.0000  0.26248  0.32787  0.14595  0.0000
C15  C  1.0000  0.45864  0.32809  0.15024  0.0000
C16  C  1.0000  0.65874  0.33551  0.14683  0.0000
C17  C  1.0000  0.79455  0.40398  0.14357  0.0000
C18  C  1.0000  0.86318  0.33614  0.14085  0.0000
C19  C  1.0000  0.00132  0.60028  0.14077  0.0000
C20  C  1.0000  0.06764  0.53222  0.14335  0.0000
C21  C  1.0000  0.20209  0.59389  0.14768  0.0000
C22  C  1.0000  0.86687  0.53794  0.14089  0.0000
C23  C  1.0000  0.00255  0.80090  0.13812  0.0000
C24  C  1.0000  0.06983  0.73326  0.14001  0.0000
C25  C  1.0000  0.20346  0.79670  0.14122  0.0000
C26  C  1.0000  0.27217  0.72865  0.14474  0.0000
C27  C  1.0000  0.40719  0.79984  0.14240  0.0000
C28  C  1.0000  0.60770  0.80750  0.13704  0.0000
C29  C  1.0000  0.80025  0.80192  0.13766  0.0000
C30  C  1.0000  0.86930  0.73503  0.13758  0.0000
C31  C  1.0000  0.00023  -0.00065  0.13595  0.0000
C32  C  1.0000  0.06712  0.93268  0.13730  0.0000
C33  C  1.0000  0.19987  0.99731  0.13830  0.0000
C34  C  1.0000  0.26749  0.93042  0.13950  0.0000
C35  C  1.0000  0.40015  -0.00138  0.13915  0.0000
C36  C  1.0000  0.46854  0.93269  0.13817  0.0000
C37  C  1.0000  0.60156  0.00305  0.13530  0.0000
C38  C  1.0000  0.67065  0.93848  0.13303  0.0000
C39  C  1.0000  0.80290  0.00372  0.13394  0.0000
C40  C  1.0000  0.86787  0.93485  0.13588  0.0000
N1  N  1.0000  0.58681  0.39479  0.15583  0.0000
N2  N  1.0000  0.80556  0.60588  0.14000  0.0000
N3  N  1.0000  0.66852  0.73828  0.14039  0.0000
N4  N  1.0000  0.39285  0.39282  0.15560  0.0000
N5  N  1.0000  0.26242  0.52420  0.15436  0.0000
N6  N  1.0000  0.48033  0.74202  0.14502  0.0000
Nb1  Nb  1.0000  0.44827  0.57542  0.19099  0.0000
Ti1  Ti  1.0000  0.64902  0.57715  0.18840  0.0000
