data_CNNbV
_audit_creation_method           'pos2cif.pl'
_cell_length_a               12.3170003891
_cell_length_b               12.3170003891315
_cell_length_c               20
_cell_angle_alpha            90
_cell_angle_beta             90
_cell_angle_gamma            120.010002136348
_symmetry_space_group_H-M        'P1'
_symmetry_Int_Tables_number      '1'
_symmetry_cell_setting           'triclinic'
loop_
_symmetry_equiv_pos_as_xyz
x,y,z

loop_
_atom_site_label
_atom_site_type_symbol
_atom_site_occupancy
_atom_site_fract_x
_atom_site_fract_y
_atom_site_fract_z
_atom_site_U_iso_or_equiv
C1  C  1.0000  0.00119  0.20158  0.14258  0.0000
C2  C  1.0000  0.06654  0.13359  0.14240  0.0000
C3  C  1.0000  0.19940  0.19870  0.14466  0.0000
C4  C  1.0000  0.26333  0.12876  0.14468  0.0000
C5  C  1.0000  0.39532  0.19413  0.14753  0.0000
C6  C  1.0000  0.46489  0.13035  0.14528  0.0000
C7  C  1.0000  0.59816  0.19971  0.14597  0.0000
C8  C  1.0000  0.66717  0.13537  0.14221  0.0000
C9  C  1.0000  0.80032  0.20350  0.14283  0.0000
C10  C  1.0000  0.86826  0.13720  0.14138  0.0000
C11  C  1.0000  -0.00138  0.40050  0.14573  0.0000
C12  C  1.0000  0.06667  0.33361  0.14531  0.0000
C13  C  1.0000  0.20003  0.39864  0.15005  0.0000
C14  C  1.0000  0.26678  0.33108  0.14899  0.0000
C15  C  1.0000  0.45997  0.32497  0.15314  0.0000
C16  C  1.0000  0.66029  0.33225  0.14801  0.0000
C17  C  1.0000  0.79516  0.40405  0.14414  0.0000
C18  C  1.0000  0.86470  0.33718  0.14438  0.0000
C19  C  1.0000  -0.00086  0.60031  0.14232  0.0000
C20  C  1.0000  0.06769  0.53327  0.14615  0.0000
C21  C  1.0000  0.20323  0.59502  0.14940  0.0000
C22  C  1.0000  0.86321  0.53853  0.14012  0.0000
C23  C  1.0000  0.00051  0.80019  0.14057  0.0000
C24  C  1.0000  0.06823  0.73302  0.14168  0.0000
C25  C  1.0000  0.20233  0.79644  0.14204  0.0000
C26  C  1.0000  0.27171  0.72913  0.14306  0.0000
C27  C  1.0000  0.40622  0.80046  0.13671  0.0000
C28  C  1.0000  0.60806  0.80871  0.13129  0.0000
C29  C  1.0000  0.80078  0.80311  0.13678  0.0000
C30  C  1.0000  0.86704  0.73483  0.13744  0.0000
C31  C  1.0000  0.00104  0.00050  0.14104  0.0000
C32  C  1.0000  0.06621  0.93245  0.14143  0.0000
C33  C  1.0000  0.19907  0.99675  0.14246  0.0000
C34  C  1.0000  0.26679  0.92998  0.14180  0.0000
C35  C  1.0000  0.39982  -0.00225  0.14176  0.0000
C36  C  1.0000  0.46863  0.93296  0.13794  0.0000
C37  C  1.0000  0.60225  0.00286  0.13815  0.0000
C38  C  1.0000  0.67212  0.93980  0.13631  0.0000
C39  C  1.0000  0.80400  0.00518  0.13890  0.0000
C40  C  1.0000  0.86808  0.93525  0.13913  0.0000
N1  N  1.0000  0.58802  0.38914  0.15200  0.0000
N2  N  1.0000  0.79996  0.60585  0.13455  0.0000
N3  N  1.0000  0.66771  0.73711  0.13005  0.0000
N4  N  1.0000  0.39948  0.39644  0.15723  0.0000
N5  N  1.0000  0.26637  0.52742  0.15789  0.0000
N6  N  1.0000  0.47914  0.74330  0.13117  0.0000
Nb1  Nb  1.0000  0.46696  0.59382  0.18180  0.0000
V1  V  1.0000  0.60644  0.54642  0.12147  0.0000
