data_CNNbW
_audit_creation_method           'pos2cif.pl'
_cell_length_a               12.3170003891
_cell_length_b               12.3170003891315
_cell_length_c               20
_cell_angle_alpha            90
_cell_angle_beta             90
_cell_angle_gamma            120.010002136348
_symmetry_space_group_H-M        'P1'
_symmetry_Int_Tables_number      '1'
_symmetry_cell_setting           'triclinic'
loop_
_symmetry_equiv_pos_as_xyz
x,y,z

loop_
_atom_site_label
_atom_site_type_symbol
_atom_site_occupancy
_atom_site_fract_x
_atom_site_fract_y
_atom_site_fract_z
_atom_site_U_iso_or_equiv
C1  C  1.0000  -0.00156  0.20033  0.12990  0.0000
C2  C  1.0000  0.06469  0.13271  0.12701  0.0000
C3  C  1.0000  0.19648  0.19612  0.12968  0.0000
C4  C  1.0000  0.26396  0.12929  0.13177  0.0000
C5  C  1.0000  0.39582  0.19544  0.13771  0.0000
C6  C  1.0000  0.46492  0.13107  0.14113  0.0000
C7  C  1.0000  0.59790  0.20352  0.14441  0.0000
C8  C  1.0000  0.66610  0.13668  0.14161  0.0000
C9  C  1.0000  0.79857  0.20380  0.13863  0.0000
C10  C  1.0000  0.86602  0.13651  0.13331  0.0000
C11  C  1.0000  -0.00393  0.40012  0.13884  0.0000
C12  C  1.0000  0.06263  0.33212  0.13362  0.0000
C13  C  1.0000  0.19535  0.39683  0.13618  0.0000
C14  C  1.0000  0.26073  0.32690  0.13592  0.0000
C15  C  1.0000  0.45606  0.32632  0.14641  0.0000
C16  C  1.0000  0.65831  0.33704  0.14968  0.0000
C17  C  1.0000  0.79367  0.40572  0.14695  0.0000
C18  C  1.0000  0.86210  0.33737  0.14117  0.0000
C19  C  1.0000  0.00063  0.60124  0.14302  0.0000
C20  C  1.0000  0.06662  0.53265  0.14215  0.0000
C21  C  1.0000  0.20164  0.59353  0.14429  0.0000
C22  C  1.0000  0.86604  0.54053  0.14630  0.0000
C23  C  1.0000  0.00490  0.80197  0.13495  0.0000
C24  C  1.0000  0.07152  0.73405  0.13956  0.0000
C25  C  1.0000  0.20542  0.79666  0.14114  0.0000
C26  C  1.0000  0.27395  0.72833  0.14662  0.0000
C27  C  1.0000  0.40937  0.79719  0.15067  0.0000
C28  C  1.0000  0.61049  0.80729  0.15064  0.0000
C29  C  1.0000  0.80719  0.80723  0.13990  0.0000
C30  C  1.0000  0.87260  0.73816  0.13935  0.0000
C31  C  1.0000  0.00229  0.00083  0.12763  0.0000
C32  C  1.0000  0.06894  0.93365  0.13008  0.0000
C33  C  1.0000  0.20135  0.99716  0.13206  0.0000
C34  C  1.0000  0.26890  0.93020  0.13797  0.0000
C35  C  1.0000  0.40149  -0.00251  0.14113  0.0000
C36  C  1.0000  0.46972  0.93086  0.14541  0.0000
C37  C  1.0000  0.60255  0.00275  0.14269  0.0000
C38  C  1.0000  0.67175  0.93818  0.14088  0.0000
C39  C  1.0000  0.80353  0.00462  0.13449  0.0000
C40  C  1.0000  0.87051  0.93730  0.13214  0.0000
N1  N  1.0000  0.58346  0.39593  0.15807  0.0000
N2  N  1.0000  0.80580  0.61007  0.14781  0.0000
N3  N  1.0000  0.67919  0.74494  0.15536  0.0000
N4  N  1.0000  0.38875  0.38830  0.14751  0.0000
N5  N  1.0000  0.26231  0.52485  0.14382  0.0000
N6  N  1.0000  0.48358  0.73882  0.15932  0.0000
Nb1  Nb  1.0000  0.43461  0.55328  0.19912  0.0000
W1  W  1.0000  0.63014  0.57524  0.19395  0.0000
