data_CNNbZr
_audit_creation_method           'pos2cif.pl'
_cell_length_a               12.3170003891
_cell_length_b               12.3170003891315
_cell_length_c               20
_cell_angle_alpha            90
_cell_angle_beta             90
_cell_angle_gamma            120.010002136348
_symmetry_space_group_H-M        'P1'
_symmetry_Int_Tables_number      '1'
_symmetry_cell_setting           'triclinic'
loop_
_symmetry_equiv_pos_as_xyz
x,y,z

loop_
_atom_site_label
_atom_site_type_symbol
_atom_site_occupancy
_atom_site_fract_x
_atom_site_fract_y
_atom_site_fract_z
_atom_site_U_iso_or_equiv
C1  C  1.0000  -0.00084  0.20039  0.13202  0.0000
C2  C  1.0000  0.06548  0.13310  0.12987  0.0000
C3  C  1.0000  0.19729  0.19673  0.13283  0.0000
C4  C  1.0000  0.26384  0.12915  0.13289  0.0000
C5  C  1.0000  0.39597  0.19553  0.13679  0.0000
C6  C  1.0000  0.46498  0.13089  0.13829  0.0000
C7  C  1.0000  0.59784  0.20236  0.14117  0.0000
C8  C  1.0000  0.66635  0.13635  0.13755  0.0000
C9  C  1.0000  0.79896  0.20350  0.13684  0.0000
C10  C  1.0000  0.86662  0.13662  0.13178  0.0000
C11  C  1.0000  -0.00347  0.39969  0.14276  0.0000
C12  C  1.0000  0.06351  0.33198  0.13817  0.0000
C13  C  1.0000  0.19557  0.39568  0.14325  0.0000
C14  C  1.0000  0.26227  0.32760  0.14028  0.0000
C15  C  1.0000  0.45807  0.32643  0.14538  0.0000
C16  C  1.0000  0.65799  0.33550  0.14798  0.0000
C17  C  1.0000  0.79400  0.40482  0.14805  0.0000
C18  C  1.0000  0.86285  0.33690  0.14244  0.0000
C19  C  1.0000  0.00066  0.60085  0.14587  0.0000
C20  C  1.0000  0.06699  0.53254  0.14629  0.0000
C21  C  1.0000  0.20173  0.59411  0.15026  0.0000
C22  C  1.0000  0.86588  0.53929  0.14905  0.0000
C23  C  1.0000  0.00390  0.80159  0.13767  0.0000
C24  C  1.0000  0.07085  0.73375  0.14270  0.0000
C25  C  1.0000  0.20457  0.79654  0.14291  0.0000
C26  C  1.0000  0.27346  0.72853  0.14842  0.0000
C27  C  1.0000  0.40936  0.79775  0.14730  0.0000
C28  C  1.0000  0.60946  0.80751  0.14085  0.0000
C29  C  1.0000  0.80494  0.80595  0.13608  0.0000
C30  C  1.0000  0.87144  0.73738  0.14102  0.0000
C31  C  1.0000  0.00236  0.00089  0.12938  0.0000
C32  C  1.0000  0.06838  0.93327  0.13222  0.0000
C33  C  1.0000  0.20091  0.99711  0.13326  0.0000
C34  C  1.0000  0.26842  0.93006  0.13795  0.0000
C35  C  1.0000  0.40097  0.99726  0.13843  0.0000
C36  C  1.0000  0.46948  0.93104  0.14059  0.0000
C37  C  1.0000  0.60227  0.00283  0.13663  0.0000
C38  C  1.0000  0.67123  0.93851  0.13344  0.0000
C39  C  1.0000  0.80360  0.00460  0.13007  0.0000
C40  C  1.0000  0.87051  0.93725  0.13034  0.0000
N1  N  1.0000  0.58487  0.39374  0.15470  0.0000
N2  N  1.0000  0.80564  0.60900  0.15210  0.0000
N3  N  1.0000  0.67518  0.74389  0.14218  0.0000
N4  N  1.0000  0.39168  0.39045  0.14982  0.0000
N5  N  1.0000  0.26146  0.52376  0.15487  0.0000
N6  N  1.0000  0.48311  0.73949  0.15286  0.0000
Nb1  Nb  1.0000  0.43332  0.55780  0.19797  0.0000
Zr1  Zr  1.0000  0.63312  0.58121  0.19836  0.0000
