data_CNNi
_audit_creation_method           'pos2cif.pl'
_cell_length_a               12.3170003891
_cell_length_b               12.3170003891315
_cell_length_c               20
_cell_angle_alpha            90
_cell_angle_beta             90
_cell_angle_gamma            120.010002136348
_symmetry_space_group_H-M        'P1'
_symmetry_Int_Tables_number      '1'
_symmetry_cell_setting           'triclinic'
loop_
_symmetry_equiv_pos_as_xyz
x,y,z

loop_
_atom_site_label
_atom_site_type_symbol
_atom_site_occupancy
_atom_site_fract_x
_atom_site_fract_y
_atom_site_fract_z
_atom_site_U_iso_or_equiv
C1  C  1.0000  0.99808  0.19984  0.14248  0.0000
C2  C  1.0000  0.06504  0.13285  0.14243  0.0000
C3  C  1.0000  0.19745  0.19704  0.14264  0.0000
C4  C  1.0000  0.26421  0.12961  0.14279  0.0000
C5  C  1.0000  0.39577  0.19649  0.14318  0.0000
C6  C  1.0000  0.46484  0.13168  0.14327  0.0000
C7  C  1.0000  0.59755  0.20344  0.14343  0.0000
C8  C  1.0000  0.66565  0.13655  0.14318  0.0000
C9  C  1.0000  0.79829  0.20379  0.14293  0.0000
C10  C  1.0000  0.86597  0.13663  0.14264  0.0000
C11  C  1.0000  0.99568  0.40011  0.14285  0.0000
C12  C  1.0000  0.06203  0.33177  0.14264  0.0000
C13  C  1.0000  0.19455  0.39632  0.14287  0.0000
C14  C  1.0000  0.26296  0.32848  0.14299  0.0000
C15  C  1.0000  0.45776  0.33005  0.14359  0.0000
C16  C  1.0000  0.65726  0.33825  0.14368  0.0000
C17  C  1.0000  0.79305  0.40593  0.14346  0.0000
C18  C  1.0000  0.86122  0.33760  0.14305  0.0000
C19  C  1.0000  0.00090  0.60136  0.14309  0.0000
C20  C  1.0000  0.06647  0.53247  0.14299  0.0000
C21  C  1.0000  0.20198  0.59281  0.14315  0.0000
C22  C  1.0000  0.86539  0.54099  0.14338  0.0000
C23  C  1.0000  0.00534  0.80204  0.14289  0.0000
C24  C  1.0000  0.07169  0.73371  0.14297  0.0000
C25  C  1.0000  0.20616  0.79621  0.14302  0.0000
C26  C  1.0000  0.27432  0.72788  0.14327  0.0000
C27  C  1.0000  0.41011  0.79555  0.14352  0.0000
C28  C  1.0000  0.60960  0.80373  0.14359  0.0000
C29  C  1.0000  0.80442  0.80531  0.14325  0.0000
C30  C  1.0000  0.87281  0.73747  0.14322  0.0000
C31  C  1.0000  0.00236  0.00096  0.14251  0.0000
C32  C  1.0000  0.06931  0.93397  0.14264  0.0000
C33  C  1.0000  0.20141  0.99717  0.14272  0.0000
C34  C  1.0000  0.26911  0.93002  0.14295  0.0000
C35  C  1.0000  0.40175  0.99725  0.14315  0.0000
C36  C  1.0000  0.46985  0.93036  0.14334  0.0000
C37  C  1.0000  0.60257  0.00213  0.14324  0.0000
C38  C  1.0000  0.67161  0.93729  0.14317  0.0000
C39  C  1.0000  0.80318  0.00419  0.14280  0.0000
C40  C  1.0000  0.86993  0.93675  0.14278  0.0000
N1  N  1.0000  0.58548  0.39839  0.14399  0.0000
N2  N  1.0000  0.80612  0.61030  0.14356  0.0000
N3  N  1.0000  0.67524  0.73914  0.14374  0.0000
N4  N  1.0000  0.39213  0.39465  0.14358  0.0000
N5  N  1.0000  0.26124  0.52349  0.14321  0.0000
N6  N  1.0000  0.48188  0.73539  0.14386  0.0000
Ni1  Ni  1.0000  0.43575  0.56355  0.14403  0.0000
Ni2  Ni  1.0000  0.63159  0.57023  0.14422  0.0000
