data_CNNiOs
_audit_creation_method           'pos2cif.pl'
_cell_length_a               12.3170003891
_cell_length_b               12.3170003891315
_cell_length_c               20
_cell_angle_alpha            90
_cell_angle_beta             90
_cell_angle_gamma            120.010002136348
_symmetry_space_group_H-M        'P1'
_symmetry_Int_Tables_number      '1'
_symmetry_cell_setting           'triclinic'
loop_
_symmetry_equiv_pos_as_xyz
x,y,z

loop_
_atom_site_label
_atom_site_type_symbol
_atom_site_occupancy
_atom_site_fract_x
_atom_site_fract_y
_atom_site_fract_z
_atom_site_U_iso_or_equiv
C1  C  1.0000  0.99948  0.20138  0.14213  0.0000
C2  C  1.0000  0.06664  0.13482  0.14186  0.0000
C3  C  1.0000  0.19857  0.19790  0.14222  0.0000
C4  C  1.0000  0.26309  0.12816  0.14221  0.0000
C5  C  1.0000  0.39401  0.19218  0.14279  0.0000
C6  C  1.0000  0.46420  0.12876  0.14293  0.0000
C7  C  1.0000  0.59720  0.19973  0.14323  0.0000
C8  C  1.0000  0.66627  0.13526  0.14284  0.0000
C9  C  1.0000  0.79898  0.20434  0.14271  0.0000
C10  C  1.0000  0.86736  0.13829  0.14222  0.0000
C11  C  1.0000  0.99630  0.40083  0.14304  0.0000
C12  C  1.0000  0.06324  0.33280  0.14263  0.0000
C13  C  1.0000  0.19564  0.39728  0.14297  0.0000
C14  C  1.0000  0.26449  0.32965  0.14299  0.0000
C15  C  1.0000  0.45471  0.32297  0.14375  0.0000
C16  C  1.0000  0.65770  0.33234  0.14401  0.0000
C17  C  1.0000  0.79313  0.40548  0.14385  0.0000
C18  C  1.0000  0.86208  0.33800  0.14316  0.0000
C19  C  1.0000  -0.00139  0.60128  0.14343  0.0000
C20  C  1.0000  0.06540  0.53297  0.14332  0.0000
C21  C  1.0000  0.20104  0.59345  0.14341  0.0000
C22  C  1.0000  0.86343  0.54048  0.14393  0.0000
C23  C  1.0000  0.00525  0.80302  0.14258  0.0000
C24  C  1.0000  0.07083  0.73384  0.14300  0.0000
C25  C  1.0000  0.20494  0.79561  0.14299  0.0000
C26  C  1.0000  0.27379  0.72786  0.14346  0.0000
C27  C  1.0000  0.41002  0.79624  0.14366  0.0000
C28  C  1.0000  0.61141  0.80743  0.14380  0.0000
C29  C  1.0000  0.80763  0.81011  0.14319  0.0000
C30  C  1.0000  0.87394  0.74154  0.14326  0.0000
C31  C  1.0000  0.00400  0.00318  0.14179  0.0000
C32  C  1.0000  0.06927  0.93472  0.14200  0.0000
C33  C  1.0000  0.20076  0.99640  0.14212  0.0000
C34  C  1.0000  0.26829  0.92912  0.14263  0.0000
C35  C  1.0000  0.40097  0.99570  0.14285  0.0000
C36  C  1.0000  0.46995  0.93016  0.14318  0.0000
C37  C  1.0000  0.60278  0.00190  0.14289  0.0000
C38  C  1.0000  0.67305  0.93923  0.14283  0.0000
C39  C  1.0000  0.80484  0.00668  0.14228  0.0000
C40  C  1.0000  0.87230  0.94049  0.14219  0.0000
N1  N  1.0000  0.58349  0.38815  0.14489  0.0000
N2  N  1.0000  0.80417  0.61321  0.14431  0.0000
N3  N  1.0000  0.67834  0.74427  0.14444  0.0000
N4  N  1.0000  0.39407  0.39268  0.14387  0.0000
N5  N  1.0000  0.26050  0.52432  0.14338  0.0000
N6  N  1.0000  0.48342  0.73859  0.14425  0.0000
Ni1  Ni  1.0000  0.43598  0.56851  0.14437  0.0000
Os1  Os  1.0000  0.62146  0.55985  0.14613  0.0000
