data_CNNiPd
_audit_creation_method           'pos2cif.pl'
_cell_length_a               12.3170003891
_cell_length_b               12.3170003891315
_cell_length_c               20
_cell_angle_alpha            90
_cell_angle_beta             90
_cell_angle_gamma            120.010002136348
_symmetry_space_group_H-M        'P1'
_symmetry_Int_Tables_number      '1'
_symmetry_cell_setting           'triclinic'
loop_
_symmetry_equiv_pos_as_xyz
x,y,z

loop_
_atom_site_label
_atom_site_type_symbol
_atom_site_occupancy
_atom_site_fract_x
_atom_site_fract_y
_atom_site_fract_z
_atom_site_U_iso_or_equiv
C1  C  1.0000  0.99802  0.20004  0.14163  0.0000
C2  C  1.0000  0.06513  0.13326  0.14107  0.0000
C3  C  1.0000  0.19711  0.19664  0.14148  0.0000
C4  C  1.0000  0.26327  0.12848  0.14163  0.0000
C5  C  1.0000  0.39427  0.19425  0.14263  0.0000
C6  C  1.0000  0.46435  0.13051  0.14309  0.0000
C7  C  1.0000  0.59707  0.20191  0.14359  0.0000
C8  C  1.0000  0.66571  0.13648  0.14331  0.0000
C9  C  1.0000  0.79833  0.20407  0.14295  0.0000
C10  C  1.0000  0.86621  0.13738  0.14207  0.0000
C11  C  1.0000  0.99568  0.40014  0.14328  0.0000
C12  C  1.0000  0.06171  0.33168  0.14249  0.0000
C13  C  1.0000  0.19386  0.39589  0.14292  0.0000
C14  C  1.0000  0.26219  0.32775  0.14261  0.0000
C15  C  1.0000  0.45549  0.32671  0.14362  0.0000
C16  C  1.0000  0.65665  0.33594  0.14416  0.0000
C17  C  1.0000  0.79298  0.40559  0.14410  0.0000
C18  C  1.0000  0.86119  0.33772  0.14344  0.0000
C19  C  1.0000  0.00203  0.60142  0.14374  0.0000
C20  C  1.0000  0.06686  0.53242  0.14373  0.0000
C21  C  1.0000  0.20185  0.59265  0.14388  0.0000
C22  C  1.0000  0.86700  0.54101  0.14408  0.0000
C23  C  1.0000  0.00648  0.80270  0.14246  0.0000
C24  C  1.0000  0.07224  0.73370  0.14313  0.0000
C25  C  1.0000  0.20652  0.79594  0.14314  0.0000
C26  C  1.0000  0.27460  0.72775  0.14386  0.0000
C27  C  1.0000  0.41037  0.79563  0.14407  0.0000
C28  C  1.0000  0.61023  0.80685  0.14403  0.0000
C29  C  1.0000  0.80634  0.80802  0.14311  0.0000
C30  C  1.0000  0.87445  0.73864  0.14324  0.0000
C31  C  1.0000  0.00326  0.00183  0.14113  0.0000
C32  C  1.0000  0.06972  0.93420  0.14146  0.0000
C33  C  1.0000  0.20129  0.99657  0.14161  0.0000
C34  C  1.0000  0.26902  0.92948  0.14254  0.0000
C35  C  1.0000  0.40149  0.99650  0.14304  0.0000
C36  C  1.0000  0.46989  0.93027  0.14359  0.0000
C37  C  1.0000  0.60263  0.00283  0.14337  0.0000
C38  C  1.0000  0.67223  0.93943  0.14314  0.0000
C39  C  1.0000  0.80375  0.00533  0.14220  0.0000
C40  C  1.0000  0.87144  0.93878  0.14189  0.0000
N1  N  1.0000  0.58262  0.39174  0.14465  0.0000
N2  N  1.0000  0.81078  0.61189  0.14421  0.0000
N3  N  1.0000  0.67817  0.74655  0.14431  0.0000
N4  N  1.0000  0.39093  0.39305  0.14373  0.0000
N5  N  1.0000  0.26030  0.52297  0.14382  0.0000
N6  N  1.0000  0.48248  0.73614  0.14463  0.0000
Ni1  Ni  1.0000  0.43163  0.56250  0.14481  0.0000
Pd1  Pd  1.0000  0.62723  0.56995  0.14527  0.0000
