data_CNNiPt
_audit_creation_method           'pos2cif.pl'
_cell_length_a               12.3170003891
_cell_length_b               12.3170003891315
_cell_length_c               20
_cell_angle_alpha            90
_cell_angle_beta             90
_cell_angle_gamma            120.010002136348
_symmetry_space_group_H-M        'P1'
_symmetry_Int_Tables_number      '1'
_symmetry_cell_setting           'triclinic'
loop_
_symmetry_equiv_pos_as_xyz
x,y,z

loop_
_atom_site_label
_atom_site_type_symbol
_atom_site_occupancy
_atom_site_fract_x
_atom_site_fract_y
_atom_site_fract_z
_atom_site_U_iso_or_equiv
C1  C  1.0000  0.99782  0.20015  0.14159  0.0000
C2  C  1.0000  0.06502  0.13341  0.14104  0.0000
C3  C  1.0000  0.19673  0.19635  0.14145  0.0000
C4  C  1.0000  0.26306  0.12833  0.14162  0.0000
C5  C  1.0000  0.39397  0.19389  0.14265  0.0000
C6  C  1.0000  0.46422  0.13031  0.14310  0.0000
C7  C  1.0000  0.59686  0.20205  0.14362  0.0000
C8  C  1.0000  0.66554  0.13646  0.14333  0.0000
C9  C  1.0000  0.79813  0.20425  0.14295  0.0000
C10  C  1.0000  0.86605  0.13753  0.14204  0.0000
C11  C  1.0000  0.99530  0.40021  0.14326  0.0000
C12  C  1.0000  0.06130  0.33172  0.14246  0.0000
C13  C  1.0000  0.19336  0.39575  0.14293  0.0000
C14  C  1.0000  0.26127  0.32727  0.14263  0.0000
C15  C  1.0000  0.45421  0.32591  0.14365  0.0000
C16  C  1.0000  0.65651  0.33611  0.14416  0.0000
C17  C  1.0000  0.79265  0.40590  0.14409  0.0000
C18  C  1.0000  0.86092  0.33790  0.14343  0.0000
C19  C  1.0000  0.00186  0.60153  0.14374  0.0000
C20  C  1.0000  0.06663  0.53246  0.14370  0.0000
C21  C  1.0000  0.20166  0.59252  0.14387  0.0000
C22  C  1.0000  0.86684  0.54118  0.14408  0.0000
C23  C  1.0000  0.00716  0.80313  0.14250  0.0000
C24  C  1.0000  0.07257  0.73381  0.14315  0.0000
C25  C  1.0000  0.20675  0.79586  0.14315  0.0000
C26  C  1.0000  0.27479  0.72755  0.14386  0.0000
C27  C  1.0000  0.41063  0.79524  0.14406  0.0000
C28  C  1.0000  0.61045  0.80645  0.14404  0.0000
C29  C  1.0000  0.80800  0.80931  0.14313  0.0000
C30  C  1.0000  0.87564  0.73999  0.14326  0.0000
C31  C  1.0000  0.00361  0.00220  0.14112  0.0000
C32  C  1.0000  0.07008  0.93454  0.14146  0.0000
C33  C  1.0000  0.20148  0.99657  0.14160  0.0000
C34  C  1.0000  0.26920  0.92941  0.14254  0.0000
C35  C  1.0000  0.40160  0.99633  0.14304  0.0000
C36  C  1.0000  0.46999  0.92996  0.14358  0.0000
C37  C  1.0000  0.60268  0.00262  0.14337  0.0000
C38  C  1.0000  0.67237  0.93914  0.14315  0.0000
C39  C  1.0000  0.80388  0.00557  0.14219  0.0000
C40  C  1.0000  0.87205  0.93956  0.14190  0.0000
N1  N  1.0000  0.58180  0.39202  0.14465  0.0000
N2  N  1.0000  0.81106  0.61293  0.14420  0.0000
N3  N  1.0000  0.67968  0.74671  0.14432  0.0000
N4  N  1.0000  0.38973  0.39202  0.14379  0.0000
N5  N  1.0000  0.26010  0.52281  0.14384  0.0000
N6  N  1.0000  0.48293  0.73563  0.14464  0.0000
Ni1  Ni  1.0000  0.43120  0.56097  0.14486  0.0000
Pt1  Pt  1.0000  0.62766  0.56964  0.14515  0.0000
