data_CNNiRe
_audit_creation_method           'pos2cif.pl'
_cell_length_a               12.3170003891
_cell_length_b               12.3170003891315
_cell_length_c               20
_cell_angle_alpha            90
_cell_angle_beta             90
_cell_angle_gamma            120.010002136348
_symmetry_space_group_H-M        'P1'
_symmetry_Int_Tables_number      '1'
_symmetry_cell_setting           'triclinic'
loop_
_symmetry_equiv_pos_as_xyz
x,y,z

loop_
_atom_site_label
_atom_site_type_symbol
_atom_site_occupancy
_atom_site_fract_x
_atom_site_fract_y
_atom_site_fract_z
_atom_site_U_iso_or_equiv
C1  C  1.0000  -0.00037  0.20125  0.14118  0.0000
C2  C  1.0000  0.06657  0.13454  0.13915  0.0000
C3  C  1.0000  0.19850  0.19779  0.13827  0.0000
C4  C  1.0000  0.26331  0.12839  0.13712  0.0000
C5  C  1.0000  0.39455  0.19319  0.13797  0.0000
C6  C  1.0000  0.46440  0.12926  0.13964  0.0000
C7  C  1.0000  0.59744  0.20026  0.14178  0.0000
C8  C  1.0000  0.66640  0.13549  0.14202  0.0000
C9  C  1.0000  0.79908  0.20413  0.14306  0.0000
C10  C  1.0000  0.86742  0.13791  0.14232  0.0000
C11  C  1.0000  0.99639  0.40054  0.14314  0.0000
C12  C  1.0000  0.06348  0.33272  0.14157  0.0000
C13  C  1.0000  0.19587  0.39725  0.13970  0.0000
C14  C  1.0000  0.26412  0.32947  0.13950  0.0000
C15  C  1.0000  0.45557  0.32429  0.14159  0.0000
C16  C  1.0000  0.65801  0.33269  0.14601  0.0000
C17  C  1.0000  0.79327  0.40511  0.14697  0.0000
C18  C  1.0000  0.86237  0.33764  0.14438  0.0000
C19  C  1.0000  -0.00117  0.60099  0.14437  0.0000
C20  C  1.0000  0.06565  0.53278  0.14298  0.0000
C21  C  1.0000  0.20122  0.59341  0.14077  0.0000
C22  C  1.0000  0.86373  0.54003  0.14783  0.0000
C23  C  1.0000  0.00462  0.80253  0.14194  0.0000
C24  C  1.0000  0.07069  0.73371  0.14203  0.0000
C25  C  1.0000  0.20473  0.79567  0.14044  0.0000
C26  C  1.0000  0.27376  0.72781  0.14114  0.0000
C27  C  1.0000  0.40985  0.79596  0.14283  0.0000
C28  C  1.0000  0.61101  0.80806  0.14831  0.0000
C29  C  1.0000  0.80785  0.80989  0.14813  0.0000
C30  C  1.0000  0.87315  0.74066  0.14667  0.0000
C31  C  1.0000  0.00378  0.00277  0.13954  0.0000
C32  C  1.0000  0.06899  0.93428  0.13915  0.0000
C33  C  1.0000  0.20079  0.99650  0.13785  0.0000
C34  C  1.0000  0.26830  0.92927  0.13904  0.0000
C35  C  1.0000  0.40103  0.99600  0.13976  0.0000
C36  C  1.0000  0.46991  0.93012  0.14183  0.0000
C37  C  1.0000  0.60269  0.00213  0.14230  0.0000
C38  C  1.0000  0.67288  0.93936  0.14431  0.0000
C39  C  1.0000  0.80486  0.00642  0.14329  0.0000
C40  C  1.0000  0.87225  0.94000  0.14290  0.0000
N1  N  1.0000  0.58344  0.38840  0.15098  0.0000
N2  N  1.0000  0.80393  0.61176  0.15110  0.0000
N3  N  1.0000  0.67866  0.74619  0.15524  0.0000
N4  N  1.0000  0.39430  0.39344  0.14083  0.0000
N5  N  1.0000  0.26108  0.52467  0.13776  0.0000
N6  N  1.0000  0.48339  0.73789  0.14577  0.0000
Ni1  Ni  1.0000  0.43627  0.56653  0.14065  0.0000
Re1  Re  1.0000  0.61901  0.56200  0.16684  0.0000
