data_CNNiRh
_audit_creation_method           'pos2cif.pl'
_cell_length_a               12.3170003891
_cell_length_b               12.3170003891315
_cell_length_c               20
_cell_angle_alpha            90
_cell_angle_beta             90
_cell_angle_gamma            120.010002136348
_symmetry_space_group_H-M        'P1'
_symmetry_Int_Tables_number      '1'
_symmetry_cell_setting           'triclinic'
loop_
_symmetry_equiv_pos_as_xyz
x,y,z

loop_
_atom_site_label
_atom_site_type_symbol
_atom_site_occupancy
_atom_site_fract_x
_atom_site_fract_y
_atom_site_fract_z
_atom_site_U_iso_or_equiv
C1  C  1.0000  0.99942  0.20097  0.14150  0.0000
C2  C  1.0000  0.06654  0.13428  0.14083  0.0000
C3  C  1.0000  0.19888  0.19810  0.14126  0.0000
C4  C  1.0000  0.26366  0.12866  0.14140  0.0000
C5  C  1.0000  0.39481  0.19361  0.14246  0.0000
C6  C  1.0000  0.46454  0.12975  0.14302  0.0000
C7  C  1.0000  0.59733  0.20016  0.14361  0.0000
C8  C  1.0000  0.66637  0.13557  0.14340  0.0000
C9  C  1.0000  0.79916  0.20406  0.14300  0.0000
C10  C  1.0000  0.86729  0.13784  0.14200  0.0000
C11  C  1.0000  0.99660  0.40065  0.14344  0.0000
C12  C  1.0000  0.06332  0.33255  0.14251  0.0000
C13  C  1.0000  0.19592  0.39702  0.14298  0.0000
C14  C  1.0000  0.26544  0.33004  0.14250  0.0000
C15  C  1.0000  0.45678  0.32544  0.14346  0.0000
C16  C  1.0000  0.65782  0.33337  0.14413  0.0000
C17  C  1.0000  0.79346  0.40511  0.14420  0.0000
C18  C  1.0000  0.86225  0.33781  0.14355  0.0000
C19  C  1.0000  -0.00032  0.60124  0.14402  0.0000
C20  C  1.0000  0.06605  0.53289  0.14401  0.0000
C21  C  1.0000  0.20158  0.59359  0.14417  0.0000
C22  C  1.0000  0.86406  0.54037  0.14427  0.0000
C23  C  1.0000  0.00462  0.80232  0.14243  0.0000
C24  C  1.0000  0.07064  0.73359  0.14328  0.0000
C25  C  1.0000  0.20507  0.79597  0.14329  0.0000
C26  C  1.0000  0.27374  0.72831  0.14411  0.0000
C27  C  1.0000  0.40967  0.79700  0.14425  0.0000
C28  C  1.0000  0.61049  0.80671  0.14403  0.0000
C29  C  1.0000  0.80499  0.80771  0.14296  0.0000
C30  C  1.0000  0.87237  0.73903  0.14320  0.0000
C31  C  1.0000  0.00331  0.00230  0.14087  0.0000
C32  C  1.0000  0.06897  0.93416  0.14124  0.0000
C33  C  1.0000  0.20081  0.99667  0.14142  0.0000
C34  C  1.0000  0.26836  0.92946  0.14250  0.0000
C35  C  1.0000  0.40103  0.99630  0.14305  0.0000
C36  C  1.0000  0.46981  0.93092  0.14373  0.0000
C37  C  1.0000  0.60277  0.00223  0.14351  0.0000
C38  C  1.0000  0.67264  0.93911  0.14320  0.0000
C39  C  1.0000  0.80425  0.00580  0.14211  0.0000
C40  C  1.0000  0.87113  0.93880  0.14172  0.0000
N1  N  1.0000  0.58449  0.38904  0.14447  0.0000
N2  N  1.0000  0.80550  0.61152  0.14428  0.0000
N3  N  1.0000  0.67608  0.74320  0.14413  0.0000
N4  N  1.0000  0.39522  0.39478  0.14365  0.0000
N5  N  1.0000  0.26078  0.52415  0.14407  0.0000
N6  N  1.0000  0.48219  0.73897  0.14476  0.0000
Ni1  Ni  1.0000  0.43370  0.57017  0.14500  0.0000
Rh1  Rh  1.0000  0.62343  0.55986  0.14495  0.0000
