data_CNNiRu
_audit_creation_method           'pos2cif.pl'
_cell_length_a               12.3170003891
_cell_length_b               12.3170003891315
_cell_length_c               20
_cell_angle_alpha            90
_cell_angle_beta             90
_cell_angle_gamma            120.010002136348
_symmetry_space_group_H-M        'P1'
_symmetry_Int_Tables_number      '1'
_symmetry_cell_setting           'triclinic'
loop_
_symmetry_equiv_pos_as_xyz
x,y,z

loop_
_atom_site_label
_atom_site_type_symbol
_atom_site_occupancy
_atom_site_fract_x
_atom_site_fract_y
_atom_site_fract_z
_atom_site_U_iso_or_equiv
C1  C  1.0000  0.99959  0.20115  0.14211  0.0000
C2  C  1.0000  0.06665  0.13451  0.14181  0.0000
C3  C  1.0000  0.19887  0.19813  0.14214  0.0000
C4  C  1.0000  0.26342  0.12847  0.14216  0.0000
C5  C  1.0000  0.39452  0.19302  0.14275  0.0000
C6  C  1.0000  0.46446  0.12930  0.14297  0.0000
C7  C  1.0000  0.59739  0.19992  0.14327  0.0000
C8  C  1.0000  0.66645  0.13553  0.14299  0.0000
C9  C  1.0000  0.79924  0.20421  0.14281  0.0000
C10  C  1.0000  0.86749  0.13809  0.14229  0.0000
C11  C  1.0000  0.99662  0.40066  0.14310  0.0000
C12  C  1.0000  0.06358  0.33271  0.14264  0.0000
C13  C  1.0000  0.19606  0.39732  0.14298  0.0000
C14  C  1.0000  0.26529  0.33007  0.14290  0.0000
C15  C  1.0000  0.45621  0.32438  0.14361  0.0000
C16  C  1.0000  0.65800  0.33283  0.14390  0.0000
C17  C  1.0000  0.79352  0.40521  0.14377  0.0000
C18  C  1.0000  0.86242  0.33780  0.14320  0.0000
C19  C  1.0000  -0.00090  0.60116  0.14347  0.0000
C20  C  1.0000  0.06574  0.53293  0.14342  0.0000
C21  C  1.0000  0.20126  0.59357  0.14356  0.0000
C22  C  1.0000  0.86374  0.54026  0.14379  0.0000
C23  C  1.0000  0.00447  0.80246  0.14262  0.0000
C24  C  1.0000  0.07054  0.73372  0.14305  0.0000
C25  C  1.0000  0.20477  0.79580  0.14308  0.0000
C26  C  1.0000  0.27364  0.72813  0.14358  0.0000
C27  C  1.0000  0.40981  0.79666  0.14378  0.0000
C28  C  1.0000  0.61107  0.80765  0.14384  0.0000
C29  C  1.0000  0.80584  0.80850  0.14313  0.0000
C30  C  1.0000  0.87252  0.73972  0.14316  0.0000
C31  C  1.0000  0.00353  0.00264  0.14177  0.0000
C32  C  1.0000  0.06890  0.93428  0.14201  0.0000
C33  C  1.0000  0.20061  0.99646  0.14213  0.0000
C34  C  1.0000  0.26818  0.92929  0.14268  0.0000
C35  C  1.0000  0.40094  0.99608  0.14295  0.0000
C36  C  1.0000  0.46990  0.93067  0.14332  0.0000
C37  C  1.0000  0.60279  0.00226  0.14307  0.0000
C38  C  1.0000  0.67291  0.93949  0.14298  0.0000
C39  C  1.0000  0.80466  0.00627  0.14237  0.0000
C40  C  1.0000  0.87160  0.93951  0.14222  0.0000
N1  N  1.0000  0.58452  0.38859  0.14466  0.0000
N2  N  1.0000  0.80440  0.61167  0.14391  0.0000
N3  N  1.0000  0.67679  0.74408  0.14428  0.0000
N4  N  1.0000  0.39529  0.39399  0.14372  0.0000
N5  N  1.0000  0.26066  0.52446  0.14353  0.0000
N6  N  1.0000  0.48285  0.73897  0.14433  0.0000
Ni1  Ni  1.0000  0.43595  0.56929  0.14438  0.0000
Ru1  Ru  1.0000  0.62028  0.55929  0.14573  0.0000
