data_CNNiSc
_audit_creation_method           'pos2cif.pl'
_cell_length_a               12.3170003891
_cell_length_b               12.3170003891315
_cell_length_c               20
_cell_angle_alpha            90
_cell_angle_beta             90
_cell_angle_gamma            120.010002136348
_symmetry_space_group_H-M        'P1'
_symmetry_Int_Tables_number      '1'
_symmetry_cell_setting           'triclinic'
loop_
_symmetry_equiv_pos_as_xyz
x,y,z

loop_
_atom_site_label
_atom_site_type_symbol
_atom_site_occupancy
_atom_site_fract_x
_atom_site_fract_y
_atom_site_fract_z
_atom_site_U_iso_or_equiv
C1  C  1.0000  -0.00040  0.20044  0.14113  0.0000
C2  C  1.0000  0.06686  0.13409  0.14005  0.0000
C3  C  1.0000  0.19926  0.19858  0.13991  0.0000
C4  C  1.0000  0.26441  0.12944  0.13877  0.0000
C5  C  1.0000  0.39598  0.19525  0.13840  0.0000
C6  C  1.0000  0.46523  0.13072  0.13883  0.0000
C7  C  1.0000  0.59821  0.20105  0.13988  0.0000
C8  C  1.0000  0.66669  0.13582  0.14047  0.0000
C9  C  1.0000  0.79940  0.20353  0.14155  0.0000
C10  C  1.0000  0.86741  0.13693  0.14115  0.0000
C11  C  1.0000  0.99649  0.39991  0.14328  0.0000
C12  C  1.0000  0.06343  0.33204  0.14223  0.0000
C13  C  1.0000  0.19590  0.39726  0.14213  0.0000
C14  C  1.0000  0.26508  0.33029  0.14152  0.0000
C15  C  1.0000  0.45933  0.32784  0.13952  0.0000
C16  C  1.0000  0.65911  0.33442  0.14218  0.0000
C17  C  1.0000  0.79410  0.40472  0.14497  0.0000
C18  C  1.0000  0.86271  0.33694  0.14332  0.0000
C19  C  1.0000  -0.00036  0.60087  0.14472  0.0000
C20  C  1.0000  0.06540  0.53248  0.14348  0.0000
C21  C  1.0000  0.20048  0.59307  0.14257  0.0000
C22  C  1.0000  0.86447  0.54000  0.14755  0.0000
C23  C  1.0000  0.00400  0.80169  0.14298  0.0000
C24  C  1.0000  0.07074  0.73371  0.14338  0.0000
C25  C  1.0000  0.20503  0.79630  0.14171  0.0000
C26  C  1.0000  0.27361  0.72827  0.14214  0.0000
C27  C  1.0000  0.40952  0.79631  0.14216  0.0000
C28  C  1.0000  0.61060  0.80785  0.14495  0.0000
C29  C  1.0000  0.80551  0.80682  0.14598  0.0000
C30  C  1.0000  0.87128  0.73703  0.14689  0.0000
C31  C  1.0000  0.00357  0.00198  0.14024  0.0000
C32  C  1.0000  0.06895  0.93373  0.14032  0.0000
C33  C  1.0000  0.20121  0.99716  0.13929  0.0000
C34  C  1.0000  0.26869  0.93001  0.14000  0.0000
C35  C  1.0000  0.40141  0.99692  0.13960  0.0000
C36  C  1.0000  0.46986  0.93076  0.14083  0.0000
C37  C  1.0000  0.60270  0.00248  0.14075  0.0000
C38  C  1.0000  0.67252  0.93939  0.14223  0.0000
C39  C  1.0000  0.80451  0.00518  0.14172  0.0000
C40  C  1.0000  0.87166  0.93819  0.14208  0.0000
N1  N  1.0000  0.58753  0.39281  0.14255  0.0000
N2  N  1.0000  0.80396  0.60841  0.15234  0.0000
N3  N  1.0000  0.67647  0.74515  0.14976  0.0000
N4  N  1.0000  0.39657  0.39618  0.14133  0.0000
N5  N  1.0000  0.25958  0.52470  0.14210  0.0000
N6  N  1.0000  0.48283  0.73779  0.14349  0.0000
Ni1  Ni  1.0000  0.43578  0.56633  0.14266  0.0000
Sc1  Sc  1.0000  0.60978  0.56032  0.18288  0.0000
