data_CNNiTa
_audit_creation_method           'pos2cif.pl'
_cell_length_a               12.3170003891
_cell_length_b               12.3170003891315
_cell_length_c               20
_cell_angle_alpha            90
_cell_angle_beta             90
_cell_angle_gamma            120.010002136348
_symmetry_space_group_H-M        'P1'
_symmetry_Int_Tables_number      '1'
_symmetry_cell_setting           'triclinic'
loop_
_symmetry_equiv_pos_as_xyz
x,y,z

loop_
_atom_site_label
_atom_site_type_symbol
_atom_site_occupancy
_atom_site_fract_x
_atom_site_fract_y
_atom_site_fract_z
_atom_site_U_iso_or_equiv
C1  C  1.0000  0.00050  0.20120  0.14243  0.0000
C2  C  1.0000  0.06769  0.13497  0.14115  0.0000
C3  C  1.0000  0.20002  0.19939  0.13946  0.0000
C4  C  1.0000  0.26451  0.12950  0.13822  0.0000
C5  C  1.0000  0.39603  0.19438  0.13668  0.0000
C6  C  1.0000  0.46536  0.12986  0.13770  0.0000
C7  C  1.0000  0.59882  0.20037  0.13856  0.0000
C8  C  1.0000  0.66725  0.13498  0.14132  0.0000
C9  C  1.0000  0.79975  0.20352  0.14262  0.0000
C10  C  1.0000  0.86803  0.13716  0.14343  0.0000
C11  C  1.0000  0.99697  0.40044  0.14300  0.0000
C12  C  1.0000  0.06428  0.33265  0.14206  0.0000
C13  C  1.0000  0.19653  0.39773  0.13934  0.0000
C14  C  1.0000  0.26537  0.33109  0.13907  0.0000
C15  C  1.0000  0.45887  0.32627  0.13577  0.0000
C16  C  1.0000  0.66049  0.33260  0.13967  0.0000
C17  C  1.0000  0.79468  0.40501  0.14419  0.0000
C18  C  1.0000  0.86338  0.33708  0.14322  0.0000
C19  C  1.0000  -0.00244  0.60071  0.14595  0.0000
C20  C  1.0000  0.06467  0.53272  0.14309  0.0000
C21  C  1.0000  0.20014  0.59393  0.14029  0.0000
C22  C  1.0000  0.86262  0.53938  0.14869  0.0000
C23  C  1.0000  0.00373  0.80195  0.14477  0.0000
C24  C  1.0000  0.07032  0.73391  0.14459  0.0000
C25  C  1.0000  0.20413  0.79613  0.14226  0.0000
C26  C  1.0000  0.27321  0.72815  0.14168  0.0000
C27  C  1.0000  0.40930  0.79630  0.14306  0.0000
C28  C  1.0000  0.61101  0.80746  0.14953  0.0000
C29  C  1.0000  0.80809  0.80861  0.14997  0.0000
C30  C  1.0000  0.87154  0.73907  0.14933  0.0000
C31  C  1.0000  0.00423  0.00282  0.14220  0.0000
C32  C  1.0000  0.06888  0.93401  0.14182  0.0000
C33  C  1.0000  0.20117  0.99730  0.13982  0.0000
C34  C  1.0000  0.26855  0.92998  0.14045  0.0000
C35  C  1.0000  0.40145  0.99664  0.13976  0.0000
C36  C  1.0000  0.47026  0.93034  0.14219  0.0000
C37  C  1.0000  0.60296  0.00157  0.14301  0.0000
C38  C  1.0000  0.67300  0.93849  0.14640  0.0000
C39  C  1.0000  0.80545  0.00589  0.14551  0.0000
C40  C  1.0000  0.87259  0.93934  0.14545  0.0000
N1  N  1.0000  0.58815  0.39115  0.13884  0.0000
N2  N  1.0000  0.79963  0.60920  0.15467  0.0000
N3  N  1.0000  0.67806  0.74369  0.15632  0.0000
N4  N  1.0000  0.39781  0.39665  0.13578  0.0000
N5  N  1.0000  0.25970  0.52551  0.13612  0.0000
N6  N  1.0000  0.48339  0.73811  0.14509  0.0000
Ni1  Ni  1.0000  0.43334  0.57003  0.13618  0.0000
Ta1  Ta  1.0000  0.60355  0.55395  0.17127  0.0000
