data_CNNiTc
_audit_creation_method           'pos2cif.pl'
_cell_length_a               12.3170003891
_cell_length_b               12.3170003891315
_cell_length_c               20
_cell_angle_alpha            90
_cell_angle_beta             90
_cell_angle_gamma            120.010002136348
_symmetry_space_group_H-M        'P1'
_symmetry_Int_Tables_number      '1'
_symmetry_cell_setting           'triclinic'
loop_
_symmetry_equiv_pos_as_xyz
x,y,z

loop_
_atom_site_label
_atom_site_type_symbol
_atom_site_occupancy
_atom_site_fract_x
_atom_site_fract_y
_atom_site_fract_z
_atom_site_U_iso_or_equiv
C1  C  1.0000  0.99967  0.20112  0.14126  0.0000
C2  C  1.0000  0.06661  0.13444  0.13925  0.0000
C3  C  1.0000  0.19870  0.19799  0.13753  0.0000
C4  C  1.0000  0.26347  0.12849  0.13650  0.0000
C5  C  1.0000  0.39469  0.19328  0.13712  0.0000
C6  C  1.0000  0.46453  0.12941  0.13898  0.0000
C7  C  1.0000  0.59761  0.20016  0.14145  0.0000
C8  C  1.0000  0.66654  0.13552  0.14240  0.0000
C9  C  1.0000  0.79924  0.20408  0.14352  0.0000
C10  C  1.0000  0.86755  0.13790  0.14304  0.0000
C11  C  1.0000  0.99653  0.40053  0.14318  0.0000
C12  C  1.0000  0.06356  0.33265  0.14119  0.0000
C13  C  1.0000  0.19596  0.39736  0.13890  0.0000
C14  C  1.0000  0.26470  0.32975  0.13829  0.0000
C15  C  1.0000  0.45639  0.32483  0.14012  0.0000
C16  C  1.0000  0.65808  0.33264  0.14523  0.0000
C17  C  1.0000  0.79348  0.40499  0.14696  0.0000
C18  C  1.0000  0.86244  0.33761  0.14460  0.0000
C19  C  1.0000  -0.00094  0.60100  0.14502  0.0000
C20  C  1.0000  0.06566  0.53277  0.14315  0.0000
C21  C  1.0000  0.20110  0.59343  0.14072  0.0000
C22  C  1.0000  0.86400  0.54011  0.14840  0.0000
C23  C  1.0000  0.00442  0.80241  0.14330  0.0000
C24  C  1.0000  0.07060  0.73372  0.14292  0.0000
C25  C  1.0000  0.20472  0.79577  0.14077  0.0000
C26  C  1.0000  0.27367  0.72797  0.14126  0.0000
C27  C  1.0000  0.40977  0.79629  0.14289  0.0000
C28  C  1.0000  0.61096  0.80822  0.14878  0.0000
C29  C  1.0000  0.80674  0.80909  0.14938  0.0000
C30  C  1.0000  0.87261  0.73981  0.14815  0.0000
C31  C  1.0000  0.00360  0.00261  0.14061  0.0000
C32  C  1.0000  0.06887  0.93414  0.14007  0.0000
C33  C  1.0000  0.20068  0.99647  0.13782  0.0000
C34  C  1.0000  0.26827  0.92935  0.13891  0.0000
C35  C  1.0000  0.40107  0.99614  0.13935  0.0000
C36  C  1.0000  0.46992  0.93040  0.14182  0.0000
C37  C  1.0000  0.60275  0.00227  0.14282  0.0000
C38  C  1.0000  0.67290  0.93964  0.14533  0.0000
C39  C  1.0000  0.80481  0.00630  0.14455  0.0000
C40  C  1.0000  0.87197  0.93963  0.14443  0.0000
N1  N  1.0000  0.58406  0.38829  0.14832  0.0000
N2  N  1.0000  0.80450  0.61130  0.15192  0.0000
N3  N  1.0000  0.67763  0.74588  0.15502  0.0000
N4  N  1.0000  0.39493  0.39398  0.13924  0.0000
N5  N  1.0000  0.26063  0.52464  0.13745  0.0000
N6  N  1.0000  0.48314  0.73833  0.14584  0.0000
Ni1  Ni  1.0000  0.43636  0.56775  0.14037  0.0000
Tc1  Tc  1.0000  0.61789  0.56071  0.16378  0.0000
