data_CNNiTi
_audit_creation_method           'pos2cif.pl'
_cell_length_a               12.3170003891
_cell_length_b               12.3170003891315
_cell_length_c               20
_cell_angle_alpha            90
_cell_angle_beta             90
_cell_angle_gamma            120.010002136348
_symmetry_space_group_H-M        'P1'
_symmetry_Int_Tables_number      '1'
_symmetry_cell_setting           'triclinic'
loop_
_symmetry_equiv_pos_as_xyz
x,y,z

loop_
_atom_site_label
_atom_site_type_symbol
_atom_site_occupancy
_atom_site_fract_x
_atom_site_fract_y
_atom_site_fract_z
_atom_site_U_iso_or_equiv
C1  C  1.0000  0.00001  0.20072  0.14273  0.0000
C2  C  1.0000  0.06713  0.13434  0.14193  0.0000
C3  C  1.0000  0.19963  0.19896  0.14140  0.0000
C4  C  1.0000  0.26455  0.12963  0.14036  0.0000
C5  C  1.0000  0.39621  0.19516  0.13969  0.0000
C6  C  1.0000  0.46533  0.13057  0.13984  0.0000
C7  C  1.0000  0.59850  0.20097  0.14050  0.0000
C8  C  1.0000  0.66696  0.13557  0.14144  0.0000
C9  C  1.0000  0.79954  0.20348  0.14249  0.0000
C10  C  1.0000  0.86759  0.13689  0.14266  0.0000
C11  C  1.0000  0.99682  0.40016  0.14348  0.0000
C12  C  1.0000  0.06395  0.33234  0.14305  0.0000
C13  C  1.0000  0.19652  0.39752  0.14198  0.0000
C14  C  1.0000  0.26545  0.33078  0.14184  0.0000
C15  C  1.0000  0.45937  0.32754  0.13989  0.0000
C16  C  1.0000  0.65967  0.33398  0.14187  0.0000
C17  C  1.0000  0.79430  0.40475  0.14434  0.0000
C18  C  1.0000  0.86305  0.33703  0.14347  0.0000
C19  C  1.0000  -0.00128  0.60084  0.14445  0.0000
C20  C  1.0000  0.06529  0.53265  0.14330  0.0000
C21  C  1.0000  0.20062  0.59346  0.14182  0.0000
C22  C  1.0000  0.86341  0.53993  0.14653  0.0000
C23  C  1.0000  0.00375  0.80172  0.14335  0.0000
C24  C  1.0000  0.07038  0.73379  0.14331  0.0000
C25  C  1.0000  0.20461  0.79629  0.14194  0.0000
C26  C  1.0000  0.27339  0.72830  0.14183  0.0000
C27  C  1.0000  0.40938  0.79642  0.14211  0.0000
C28  C  1.0000  0.61059  0.80723  0.14503  0.0000
C29  C  1.0000  0.80594  0.80685  0.14604  0.0000
C30  C  1.0000  0.87097  0.73749  0.14624  0.0000
C31  C  1.0000  0.00369  0.00210  0.14202  0.0000
C32  C  1.0000  0.06890  0.93387  0.14174  0.0000
C33  C  1.0000  0.20126  0.99738  0.14080  0.0000
C34  C  1.0000  0.26861  0.93010  0.14092  0.0000
C35  C  1.0000  0.40141  0.99692  0.14049  0.0000
C36  C  1.0000  0.46997  0.93069  0.14143  0.0000
C37  C  1.0000  0.60283  0.00209  0.14169  0.0000
C38  C  1.0000  0.67260  0.93879  0.14316  0.0000
C39  C  1.0000  0.80475  0.00529  0.14312  0.0000
C40  C  1.0000  0.87161  0.93811  0.14339  0.0000
N1  N  1.0000  0.58801  0.39270  0.14209  0.0000
N2  N  1.0000  0.80148  0.60835  0.14989  0.0000
N3  N  1.0000  0.67596  0.74294  0.14914  0.0000
N4  N  1.0000  0.39727  0.39640  0.14044  0.0000
N5  N  1.0000  0.26043  0.52526  0.14026  0.0000
N6  N  1.0000  0.48288  0.73800  0.14308  0.0000
Ni1  Ni  1.0000  0.43640  0.56833  0.13992  0.0000
Ti1  Ti  1.0000  0.60737  0.55848  0.16946  0.0000
