data_CNNiV
_audit_creation_method           'pos2cif.pl'
_cell_length_a               12.3170003891
_cell_length_b               12.3170003891315
_cell_length_c               20
_cell_angle_alpha            90
_cell_angle_beta             90
_cell_angle_gamma            120.010002136348
_symmetry_space_group_H-M        'P1'
_symmetry_Int_Tables_number      '1'
_symmetry_cell_setting           'triclinic'
loop_
_symmetry_equiv_pos_as_xyz
x,y,z

loop_
_atom_site_label
_atom_site_type_symbol
_atom_site_occupancy
_atom_site_fract_x
_atom_site_fract_y
_atom_site_fract_z
_atom_site_U_iso_or_equiv
C1  C  1.0000  0.00028  0.20112  0.14244  0.0000
C2  C  1.0000  0.06740  0.13469  0.14235  0.0000
C3  C  1.0000  0.19983  0.19904  0.14265  0.0000
C4  C  1.0000  0.26430  0.12937  0.14267  0.0000
C5  C  1.0000  0.39591  0.19447  0.14297  0.0000
C6  C  1.0000  0.46516  0.12999  0.14297  0.0000
C7  C  1.0000  0.59824  0.20003  0.14304  0.0000
C8  C  1.0000  0.66697  0.13529  0.14280  0.0000
C9  C  1.0000  0.79974  0.20370  0.14269  0.0000
C10  C  1.0000  0.86792  0.13747  0.14240  0.0000
C11  C  1.0000  0.99709  0.40039  0.14298  0.0000
C12  C  1.0000  0.06430  0.33269  0.14277  0.0000
C13  C  1.0000  0.19690  0.39773  0.14305  0.0000
C14  C  1.0000  0.26623  0.33119  0.14311  0.0000
C15  C  1.0000  0.45891  0.32636  0.14347  0.0000
C16  C  1.0000  0.65950  0.33273  0.14351  0.0000
C17  C  1.0000  0.79433  0.40471  0.14348  0.0000
C18  C  1.0000  0.86323  0.33728  0.14301  0.0000
C19  C  1.0000  -0.00161  0.60080  0.14330  0.0000
C20  C  1.0000  0.06539  0.53284  0.14319  0.0000
C21  C  1.0000  0.20077  0.59381  0.14334  0.0000
C22  C  1.0000  0.86287  0.53970  0.14364  0.0000
C23  C  1.0000  0.00330  0.80169  0.14285  0.0000
C24  C  1.0000  0.06999  0.73363  0.14310  0.0000
C25  C  1.0000  0.20430  0.79615  0.14311  0.0000
C26  C  1.0000  0.27327  0.72838  0.14342  0.0000
C27  C  1.0000  0.40940  0.79675  0.14356  0.0000
C28  C  1.0000  0.61112  0.80764  0.14352  0.0000
C29  C  1.0000  0.80534  0.80721  0.14315  0.0000
C30  C  1.0000  0.87066  0.73784  0.14329  0.0000
C31  C  1.0000  0.00368  0.00237  0.14229  0.0000
C32  C  1.0000  0.06864  0.93393  0.14249  0.0000
C33  C  1.0000  0.20090  0.99710  0.14260  0.0000
C34  C  1.0000  0.26830  0.92985  0.14289  0.0000
C35  C  1.0000  0.40115  0.99658  0.14297  0.0000
C36  C  1.0000  0.46991  0.93077  0.14315  0.0000
C37  C  1.0000  0.60287  0.00205  0.14286  0.0000
C38  C  1.0000  0.67293  0.93925  0.14279  0.0000
C39  C  1.0000  0.80493  0.00574  0.14243  0.0000
C40  C  1.0000  0.87162  0.93863  0.14246  0.0000
N1  N  1.0000  0.58778  0.39050  0.14405  0.0000
N2  N  1.0000  0.80089  0.60877  0.14401  0.0000
N3  N  1.0000  0.67579  0.74331  0.14393  0.0000
N4  N  1.0000  0.39755  0.39607  0.14364  0.0000
N5  N  1.0000  0.26066  0.52533  0.14336  0.0000
N6  N  1.0000  0.48280  0.73897  0.14402  0.0000
Ni1  Ni  1.0000  0.43575  0.57089  0.14428  0.0000
V1  V  1.0000  0.60981  0.55635  0.14588  0.0000
