data_CNNiW
_audit_creation_method           'pos2cif.pl'
_cell_length_a               12.3170003891
_cell_length_b               12.3170003891315
_cell_length_c               20
_cell_angle_alpha            90
_cell_angle_beta             90
_cell_angle_gamma            120.010002136348
_symmetry_space_group_H-M        'P1'
_symmetry_Int_Tables_number      '1'
_symmetry_cell_setting           'triclinic'
loop_
_symmetry_equiv_pos_as_xyz
x,y,z

loop_
_atom_site_label
_atom_site_type_symbol
_atom_site_occupancy
_atom_site_fract_x
_atom_site_fract_y
_atom_site_fract_z
_atom_site_U_iso_or_equiv
C1  C  1.0000  0.00083  0.20182  0.14229  0.0000
C2  C  1.0000  0.06819  0.13561  0.14210  0.0000
C3  C  1.0000  0.20025  0.19927  0.14249  0.0000
C4  C  1.0000  0.26381  0.12870  0.14248  0.0000
C5  C  1.0000  0.39533  0.19261  0.14288  0.0000
C6  C  1.0000  0.46510  0.12849  0.14290  0.0000
C7  C  1.0000  0.59811  0.19856  0.14301  0.0000
C8  C  1.0000  0.66721  0.13447  0.14272  0.0000
C9  C  1.0000  0.79992  0.20383  0.14264  0.0000
C10  C  1.0000  0.86842  0.13802  0.14224  0.0000
C11  C  1.0000  0.99713  0.40072  0.14308  0.0000
C12  C  1.0000  0.06456  0.33308  0.14280  0.0000
C13  C  1.0000  0.19710  0.39805  0.14314  0.0000
C14  C  1.0000  0.26649  0.33163  0.14318  0.0000
C15  C  1.0000  0.45744  0.32275  0.14349  0.0000
C16  C  1.0000  0.65989  0.33056  0.14358  0.0000
C17  C  1.0000  0.79435  0.40478  0.14362  0.0000
C18  C  1.0000  0.86348  0.33746  0.14308  0.0000
C19  C  1.0000  -0.00272  0.60090  0.14350  0.0000
C20  C  1.0000  0.06469  0.53303  0.14338  0.0000
C21  C  1.0000  0.19998  0.59425  0.14348  0.0000
C22  C  1.0000  0.86196  0.53950  0.14385  0.0000
C23  C  1.0000  0.00375  0.80232  0.14272  0.0000
C24  C  1.0000  0.06990  0.73373  0.14314  0.0000
C25  C  1.0000  0.20396  0.79599  0.14313  0.0000
C26  C  1.0000  0.27303  0.72824  0.14353  0.0000
C27  C  1.0000  0.40921  0.79649  0.14362  0.0000
C28  C  1.0000  0.61189  0.80841  0.14356  0.0000
C29  C  1.0000  0.80804  0.80977  0.14306  0.0000
C30  C  1.0000  0.87194  0.74018  0.14320  0.0000
C31  C  1.0000  0.00461  0.00344  0.14197  0.0000
C32  C  1.0000  0.06888  0.93439  0.14222  0.0000
C33  C  1.0000  0.20089  0.99695  0.14238  0.0000
C34  C  1.0000  0.26817  0.92943  0.14278  0.0000
C35  C  1.0000  0.40103  0.99571  0.14289  0.0000
C36  C  1.0000  0.47008  0.93014  0.14314  0.0000
C37  C  1.0000  0.60301  0.00152  0.14279  0.0000
C38  C  1.0000  0.67362  0.93937  0.14269  0.0000
C39  C  1.0000  0.80570  0.00670  0.14225  0.0000
C40  C  1.0000  0.87293  0.94037  0.14222  0.0000
N1  N  1.0000  0.58686  0.38689  0.14432  0.0000
N2  N  1.0000  0.79977  0.61058  0.14421  0.0000
N3  N  1.0000  0.67802  0.74470  0.14416  0.0000
N4  N  1.0000  0.39789  0.39480  0.14381  0.0000
N5  N  1.0000  0.26016  0.52587  0.14341  0.0000
N6  N  1.0000  0.48359  0.73948  0.14411  0.0000
Ni1  Ni  1.0000  0.43214  0.57259  0.14430  0.0000
W1  W  1.0000  0.60647  0.55503  0.14639  0.0000
