data_CNNiY
_audit_creation_method           'pos2cif.pl'
_cell_length_a               12.3170003891
_cell_length_b               12.3170003891315
_cell_length_c               20
_cell_angle_alpha            90
_cell_angle_beta             90
_cell_angle_gamma            120.010002136348
_symmetry_space_group_H-M        'P1'
_symmetry_Int_Tables_number      '1'
_symmetry_cell_setting           'triclinic'
loop_
_symmetry_equiv_pos_as_xyz
x,y,z

loop_
_atom_site_label
_atom_site_type_symbol
_atom_site_occupancy
_atom_site_fract_x
_atom_site_fract_y
_atom_site_fract_z
_atom_site_U_iso_or_equiv
C1  C  1.0000  -0.00030  0.20025  0.14060  0.0000
C2  C  1.0000  0.06676  0.13385  0.13912  0.0000
C3  C  1.0000  0.19930  0.19866  0.13874  0.0000
C4  C  1.0000  0.26450  0.12962  0.13695  0.0000
C5  C  1.0000  0.39628  0.19572  0.13654  0.0000
C6  C  1.0000  0.46552  0.13118  0.13699  0.0000
C7  C  1.0000  0.59857  0.20123  0.13871  0.0000
C8  C  1.0000  0.66693  0.13586  0.13951  0.0000
C9  C  1.0000  0.79960  0.20332  0.14119  0.0000
C10  C  1.0000  0.86742  0.13655  0.14065  0.0000
C11  C  1.0000  0.99689  0.39984  0.14346  0.0000
C12  C  1.0000  0.06365  0.33186  0.14195  0.0000
C13  C  1.0000  0.19610  0.39692  0.14170  0.0000
C14  C  1.0000  0.26511  0.33036  0.14093  0.0000
C15  C  1.0000  0.45997  0.32837  0.13851  0.0000
C16  C  1.0000  0.65969  0.33439  0.14223  0.0000
C17  C  1.0000  0.79469  0.40453  0.14605  0.0000
C18  C  1.0000  0.86319  0.33674  0.14363  0.0000
C19  C  1.0000  0.00018  0.60083  0.14543  0.0000
C20  C  1.0000  0.06592  0.53250  0.14370  0.0000
C21  C  1.0000  0.20097  0.59343  0.14225  0.0000
C22  C  1.0000  0.86536  0.53967  0.14949  0.0000
C23  C  1.0000  0.00371  0.80157  0.14341  0.0000
C24  C  1.0000  0.07071  0.73380  0.14350  0.0000
C25  C  1.0000  0.20478  0.79653  0.14078  0.0000
C26  C  1.0000  0.27348  0.72858  0.14126  0.0000
C27  C  1.0000  0.40919  0.79711  0.14095  0.0000
C28  C  1.0000  0.60998  0.80805  0.14522  0.0000
C29  C  1.0000  0.80476  0.80592  0.14745  0.0000
C30  C  1.0000  0.87093  0.73661  0.14900  0.0000
C31  C  1.0000  0.00317  0.00154  0.13959  0.0000
C32  C  1.0000  0.06867  0.93350  0.13958  0.0000
C33  C  1.0000  0.20113  0.99737  0.13766  0.0000
C34  C  1.0000  0.26862  0.93027  0.13836  0.0000
C35  C  1.0000  0.40142  0.99739  0.13771  0.0000
C36  C  1.0000  0.46989  0.93136  0.13932  0.0000
C37  C  1.0000  0.60272  0.00260  0.13963  0.0000
C38  C  1.0000  0.67232  0.93929  0.14188  0.0000
C39  C  1.0000  0.80443  0.00483  0.14144  0.0000
C40  C  1.0000  0.87119  0.93746  0.14221  0.0000
N1  N  1.0000  0.58799  0.39277  0.14289  0.0000
N2  N  1.0000  0.80493  0.60787  0.15618  0.0000
N3  N  1.0000  0.67504  0.74458  0.15192  0.0000
N4  N  1.0000  0.39732  0.39713  0.14084  0.0000
N5  N  1.0000  0.25993  0.52474  0.14155  0.0000
N6  N  1.0000  0.48227  0.73874  0.14264  0.0000
Ni1  Ni  1.0000  0.43386  0.56818  0.14007  0.0000
Y1  Y  1.0000  0.60827  0.55768  0.19859  0.0000
