data_CNNiZn
_audit_creation_method           'pos2cif.pl'
_cell_length_a               12.3170003891
_cell_length_b               12.3170003891315
_cell_length_c               20
_cell_angle_alpha            90
_cell_angle_beta             90
_cell_angle_gamma            120.010002136348
_symmetry_space_group_H-M        'P1'
_symmetry_Int_Tables_number      '1'
_symmetry_cell_setting           'triclinic'
loop_
_symmetry_equiv_pos_as_xyz
x,y,z

loop_
_atom_site_label
_atom_site_type_symbol
_atom_site_occupancy
_atom_site_fract_x
_atom_site_fract_y
_atom_site_fract_z
_atom_site_U_iso_or_equiv
C1  C  1.0000  0.99845  0.19965  0.14227  0.0000
C2  C  1.0000  0.06526  0.13295  0.14203  0.0000
C3  C  1.0000  0.19756  0.19726  0.14218  0.0000
C4  C  1.0000  0.26349  0.12913  0.14223  0.0000
C5  C  1.0000  0.39483  0.19530  0.14273  0.0000
C6  C  1.0000  0.46475  0.13147  0.14303  0.0000
C7  C  1.0000  0.59770  0.20189  0.14339  0.0000
C8  C  1.0000  0.66615  0.13618  0.14318  0.0000
C9  C  1.0000  0.79880  0.20347  0.14298  0.0000
C10  C  1.0000  0.86627  0.13620  0.14246  0.0000
C11  C  1.0000  0.99641  0.39976  0.14306  0.0000
C12  C  1.0000  0.06274  0.33146  0.14263  0.0000
C13  C  1.0000  0.19504  0.39589  0.14284  0.0000
C14  C  1.0000  0.26349  0.32895  0.14273  0.0000
C15  C  1.0000  0.45645  0.32756  0.14339  0.0000
C16  C  1.0000  0.65829  0.33570  0.14383  0.0000
C17  C  1.0000  0.79392  0.40518  0.14375  0.0000
C18  C  1.0000  0.86240  0.33701  0.14327  0.0000
C19  C  1.0000  0.00177  0.60106  0.14330  0.0000
C20  C  1.0000  0.06714  0.53243  0.14325  0.0000
C21  C  1.0000  0.20240  0.59334  0.14341  0.0000
C22  C  1.0000  0.86691  0.54024  0.14374  0.0000
C23  C  1.0000  0.00532  0.80255  0.14262  0.0000
C24  C  1.0000  0.07150  0.73397  0.14297  0.0000
C25  C  1.0000  0.20531  0.79656  0.14304  0.0000
C26  C  1.0000  0.27381  0.72859  0.14352  0.0000
C27  C  1.0000  0.40903  0.79775  0.14382  0.0000
C28  C  1.0000  0.60837  0.80610  0.14378  0.0000
C29  C  1.0000  0.80440  0.80510  0.14305  0.0000
C30  C  1.0000  0.87315  0.73805  0.14315  0.0000
C31  C  1.0000  0.00219  0.00091  0.14206  0.0000
C32  C  1.0000  0.06900  0.93405  0.14218  0.0000
C33  C  1.0000  0.20096  0.99720  0.14225  0.0000
C34  C  1.0000  0.26857  0.93028  0.14274  0.0000
C35  C  1.0000  0.40119  0.99779  0.14302  0.0000
C36  C  1.0000  0.46959  0.93181  0.14340  0.0000
C37  C  1.0000  0.60226  0.00254  0.14319  0.0000
C38  C  1.0000  0.67138  0.93820  0.14303  0.0000
C39  C  1.0000  0.80331  0.00421  0.14248  0.0000
C40  C  1.0000  0.87002  0.93673  0.14237  0.0000
N1  N  1.0000  0.58398  0.39197  0.14419  0.0000
N2  N  1.0000  0.80897  0.61029  0.14402  0.0000
N3  N  1.0000  0.67404  0.74181  0.14391  0.0000
N4  N  1.0000  0.39367  0.39482  0.14347  0.0000
N5  N  1.0000  0.26092  0.52365  0.14338  0.0000
N6  N  1.0000  0.48112  0.73892  0.14441  0.0000
Ni1  Ni  1.0000  0.43316  0.56909  0.14450  0.0000
Zn1  Zn  1.0000  0.63159  0.56617  0.14574  0.0000
