data_CNNiZr
_audit_creation_method           'pos2cif.pl'
_cell_length_a               12.3170003891
_cell_length_b               12.3170003891315
_cell_length_c               20
_cell_angle_alpha            90
_cell_angle_beta             90
_cell_angle_gamma            120.010002136348
_symmetry_space_group_H-M        'P1'
_symmetry_Int_Tables_number      '1'
_symmetry_cell_setting           'triclinic'
loop_
_symmetry_equiv_pos_as_xyz
x,y,z

loop_
_atom_site_label
_atom_site_type_symbol
_atom_site_occupancy
_atom_site_fract_x
_atom_site_fract_y
_atom_site_fract_z
_atom_site_U_iso_or_equiv
C1  C  1.0000  0.00009  0.20067  0.14226  0.0000
C2  C  1.0000  0.06719  0.13431  0.14131  0.0000
C3  C  1.0000  0.19969  0.19899  0.14059  0.0000
C4  C  1.0000  0.26447  0.12951  0.13887  0.0000
C5  C  1.0000  0.39627  0.19523  0.13738  0.0000
C6  C  1.0000  0.46551  0.13064  0.13745  0.0000
C7  C  1.0000  0.59867  0.20100  0.13839  0.0000
C8  C  1.0000  0.66713  0.13557  0.13994  0.0000
C9  C  1.0000  0.79966  0.20342  0.14162  0.0000
C10  C  1.0000  0.86766  0.13677  0.14223  0.0000
C11  C  1.0000  0.99694  0.40009  0.14313  0.0000
C12  C  1.0000  0.06404  0.33227  0.14261  0.0000
C13  C  1.0000  0.19646  0.39725  0.14143  0.0000
C14  C  1.0000  0.26511  0.33063  0.14158  0.0000
C15  C  1.0000  0.45949  0.32727  0.13774  0.0000
C16  C  1.0000  0.66013  0.33391  0.14039  0.0000
C17  C  1.0000  0.79468  0.40474  0.14427  0.0000
C18  C  1.0000  0.86334  0.33687  0.14300  0.0000
C19  C  1.0000  -0.00101  0.60083  0.14510  0.0000
C20  C  1.0000  0.06543  0.53264  0.14311  0.0000
C21  C  1.0000  0.20070  0.59364  0.14103  0.0000
C22  C  1.0000  0.86392  0.53949  0.14796  0.0000
C23  C  1.0000  0.00374  0.80170  0.14433  0.0000
C24  C  1.0000  0.07053  0.73390  0.14385  0.0000
C25  C  1.0000  0.20453  0.79644  0.14136  0.0000
C26  C  1.0000  0.27332  0.72838  0.14100  0.0000
C27  C  1.0000  0.40922  0.79664  0.14131  0.0000
C28  C  1.0000  0.61033  0.80787  0.14604  0.0000
C29  C  1.0000  0.80640  0.80713  0.14839  0.0000
C30  C  1.0000  0.87100  0.73756  0.14868  0.0000
C31  C  1.0000  0.00372  0.00209  0.14194  0.0000
C32  C  1.0000  0.06881  0.93370  0.14167  0.0000
C33  C  1.0000  0.20125  0.99744  0.13972  0.0000
C34  C  1.0000  0.26864  0.93016  0.13966  0.0000
C35  C  1.0000  0.40142  0.99707  0.13866  0.0000
C36  C  1.0000  0.47004  0.93084  0.14016  0.0000
C37  C  1.0000  0.60285  0.00223  0.14059  0.0000
C38  C  1.0000  0.67257  0.93890  0.14324  0.0000
C39  C  1.0000  0.80490  0.00530  0.14339  0.0000
C40  C  1.0000  0.87182  0.93829  0.14421  0.0000
N1  N  1.0000  0.58810  0.39250  0.14010  0.0000
N2  N  1.0000  0.80181  0.60790  0.15373  0.0000
N3  N  1.0000  0.67626  0.74411  0.15269  0.0000
N4  N  1.0000  0.39772  0.39704  0.14009  0.0000
N5  N  1.0000  0.26041  0.52532  0.13888  0.0000
N6  N  1.0000  0.48282  0.73825  0.14290  0.0000
Ni1  Ni  1.0000  0.43413  0.56817  0.13913  0.0000
Zr1  Zr  1.0000  0.60510  0.55648  0.18486  0.0000
