data_CNOs
_audit_creation_method           'pos2cif.pl'
_cell_length_a               12.3170003891
_cell_length_b               12.3170003891315
_cell_length_c               20
_cell_angle_alpha            90
_cell_angle_beta             90
_cell_angle_gamma            120.010002136348
_symmetry_space_group_H-M        'P1'
_symmetry_Int_Tables_number      '1'
_symmetry_cell_setting           'triclinic'
loop_
_symmetry_equiv_pos_as_xyz
x,y,z

loop_
_atom_site_label
_atom_site_type_symbol
_atom_site_occupancy
_atom_site_fract_x
_atom_site_fract_y
_atom_site_fract_z
_atom_site_U_iso_or_equiv
C1  C  1.0000  0.99885  0.20041  0.14124  0.0000
C2  C  1.0000  0.06451  0.13236  0.14037  0.0000
C3  C  1.0000  0.19525  0.19324  0.14089  0.0000
C4  C  1.0000  0.26139  0.12566  0.14109  0.0000
C5  C  1.0000  0.39244  0.19082  0.14228  0.0000
C6  C  1.0000  0.46379  0.12921  0.14297  0.0000
C7  C  1.0000  0.59682  0.20106  0.14361  0.0000
C8  C  1.0000  0.66668  0.13720  0.14344  0.0000
C9  C  1.0000  0.79932  0.20549  0.14300  0.0000
C10  C  1.0000  0.86755  0.13920  0.14186  0.0000
C11  C  1.0000  0.99641  0.40057  0.14354  0.0000
C12  C  1.0000  0.06240  0.33151  0.14245  0.0000
C13  C  1.0000  0.19328  0.39234  0.14298  0.0000
C14  C  1.0000  0.25919  0.32347  0.14239  0.0000
C15  C  1.0000  0.45144  0.32059  0.14338  0.0000
C16  C  1.0000  0.65700  0.33344  0.14413  0.0000
C17  C  1.0000  0.79307  0.40629  0.14426  0.0000
C18  C  1.0000  0.86271  0.33896  0.14361  0.0000
C19  C  1.0000  -0.00020  0.60085  0.14418  0.0000
C20  C  1.0000  0.06759  0.53297  0.14420  0.0000
C21  C  1.0000  0.20304  0.59337  0.14436  0.0000
C22  C  1.0000  0.86435  0.54044  0.14442  0.0000
C23  C  1.0000  0.00498  0.80230  0.14232  0.0000
C24  C  1.0000  0.07097  0.73324  0.14335  0.0000
C25  C  1.0000  0.20466  0.79484  0.14334  0.0000
C26  C  1.0000  0.27430  0.72751  0.14422  0.0000
C27  C  1.0000  0.41037  0.80035  0.14434  0.0000
C28  C  1.0000  0.61593  0.81319  0.14417  0.0000
C29  C  1.0000  0.80819  0.81033  0.14296  0.0000
C30  C  1.0000  0.87410  0.74147  0.14320  0.0000
C31  C  1.0000  0.00286  0.00144  0.14044  0.0000
C32  C  1.0000  0.06853  0.93340  0.14094  0.0000
C33  C  1.0000  0.19983  0.99460  0.14117  0.0000
C34  C  1.0000  0.26805  0.92831  0.14245  0.0000
C35  C  1.0000  0.40069  0.99660  0.14305  0.0000
C36  C  1.0000  0.47055  0.93274  0.14379  0.0000
C37  C  1.0000  0.60358  0.00458  0.14356  0.0000
C38  C  1.0000  0.67494  0.94297  0.14323  0.0000
C39  C  1.0000  0.80600  0.00814  0.14199  0.0000
C40  C  1.0000  0.87213  0.94055  0.14151  0.0000
N1  N  1.0000  0.58124  0.38806  0.14453  0.0000
N2  N  1.0000  0.80563  0.61360  0.14450  0.0000
N3  N  1.0000  0.67985  0.74745  0.14442  0.0000
N4  N  1.0000  0.38753  0.38634  0.14371  0.0000
N5  N  1.0000  0.26175  0.52020  0.14431  0.0000
N6  N  1.0000  0.48613  0.74572  0.14493  0.0000
Os1  Os  1.0000  0.44663  0.57473  0.14528  0.0000
Os2  Os  1.0000  0.62072  0.55903  0.14556  0.0000
