data_CNOsPd
_audit_creation_method           'pos2cif.pl'
_cell_length_a               12.3170003891
_cell_length_b               12.3170003891315
_cell_length_c               20
_cell_angle_alpha            90
_cell_angle_beta             90
_cell_angle_gamma            120.010002136348
_symmetry_space_group_H-M        'P1'
_symmetry_Int_Tables_number      '1'
_symmetry_cell_setting           'triclinic'
loop_
_symmetry_equiv_pos_as_xyz
x,y,z

loop_
_atom_site_label
_atom_site_type_symbol
_atom_site_occupancy
_atom_site_fract_x
_atom_site_fract_y
_atom_site_fract_z
_atom_site_U_iso_or_equiv
C1  C  1.0000  0.99762  0.19896  0.14128  0.0000
C2  C  1.0000  0.06349  0.13111  0.14045  0.0000
C3  C  1.0000  0.19464  0.19297  0.14089  0.0000
C4  C  1.0000  0.26195  0.12652  0.14112  0.0000
C5  C  1.0000  0.39318  0.19285  0.14229  0.0000
C6  C  1.0000  0.46424  0.13100  0.14297  0.0000
C7  C  1.0000  0.59703  0.20226  0.14362  0.0000
C8  C  1.0000  0.66627  0.13763  0.14343  0.0000
C9  C  1.0000  0.79883  0.20465  0.14300  0.0000
C10  C  1.0000  0.86645  0.13773  0.14189  0.0000
C11  C  1.0000  0.99597  0.39977  0.14351  0.0000
C12  C  1.0000  0.06104  0.33027  0.14242  0.0000
C13  C  1.0000  0.19176  0.39132  0.14287  0.0000
C14  C  1.0000  0.25844  0.32295  0.14232  0.0000
C15  C  1.0000  0.45390  0.32393  0.14340  0.0000
C16  C  1.0000  0.65697  0.33563  0.14417  0.0000
C17  C  1.0000  0.79359  0.40576  0.14428  0.0000
C18  C  1.0000  0.86210  0.33813  0.14360  0.0000
C19  C  1.0000  0.00313  0.60107  0.14406  0.0000
C20  C  1.0000  0.06844  0.53233  0.14413  0.0000
C21  C  1.0000  0.20273  0.59311  0.14429  0.0000
C22  C  1.0000  0.86835  0.54060  0.14432  0.0000
C23  C  1.0000  0.00604  0.80216  0.14232  0.0000
C24  C  1.0000  0.07205  0.73325  0.14327  0.0000
C25  C  1.0000  0.20591  0.79580  0.14330  0.0000
C26  C  1.0000  0.27441  0.72809  0.14419  0.0000
C27  C  1.0000  0.40985  0.80110  0.14437  0.0000
C28  C  1.0000  0.61341  0.81205  0.14420  0.0000
C29  C  1.0000  0.80589  0.80747  0.14302  0.0000
C30  C  1.0000  0.87448  0.73844  0.14321  0.0000
C31  C  1.0000  0.00197  0.00011  0.14055  0.0000
C32  C  1.0000  0.06885  0.93317  0.14100  0.0000
C33  C  1.0000  0.20035  0.99537  0.14121  0.0000
C34  C  1.0000  0.26862  0.92922  0.14245  0.0000
C35  C  1.0000  0.40108  0.99788  0.14303  0.0000
C36  C  1.0000  0.47016  0.93362  0.14377  0.0000
C37  C  1.0000  0.60316  0.00503  0.14355  0.0000
C38  C  1.0000  0.67366  0.94257  0.14321  0.0000
C39  C  1.0000  0.80454  0.00630  0.14202  0.0000
C40  C  1.0000  0.87074  0.93815  0.14157  0.0000
N1  N  1.0000  0.58156  0.38959  0.14459  0.0000
N2  N  1.0000  0.81279  0.61186  0.14439  0.0000
N3  N  1.0000  0.67756  0.74781  0.14447  0.0000
N4  N  1.0000  0.38708  0.38768  0.14366  0.0000
N5  N  1.0000  0.26008  0.51962  0.14417  0.0000
N6  N  1.0000  0.48409  0.74530  0.14503  0.0000
Os1  Os  1.0000  0.43929  0.57201  0.14537  0.0000
Pd1  Pd  1.0000  0.62932  0.56694  0.14571  0.0000
