data_CNOsPt
_audit_creation_method           'pos2cif.pl'
_cell_length_a               12.3170003891
_cell_length_b               12.3170003891315
_cell_length_c               20
_cell_angle_alpha            90
_cell_angle_beta             90
_cell_angle_gamma            120.010002136348
_symmetry_space_group_H-M        'P1'
_symmetry_Int_Tables_number      '1'
_symmetry_cell_setting           'triclinic'
loop_
_symmetry_equiv_pos_as_xyz
x,y,z

loop_
_atom_site_label
_atom_site_type_symbol
_atom_site_occupancy
_atom_site_fract_x
_atom_site_fract_y
_atom_site_fract_z
_atom_site_U_iso_or_equiv
C1  C  1.0000  0.99853  0.20000  0.13898  0.0000
C2  C  1.0000  0.06479  0.13234  0.13924  0.0000
C3  C  1.0000  0.19517  0.19368  0.14922  0.0000
C4  C  1.0000  0.26185  0.12636  0.14986  0.0000
C5  C  1.0000  0.39322  0.19261  0.15458  0.0000
C6  C  1.0000  0.46423  0.13060  0.14845  0.0000
C7  C  1.0000  0.59702  0.20257  0.14645  0.0000
C8  C  1.0000  0.66620  0.13760  0.14066  0.0000
C9  C  1.0000  0.79897  0.20506  0.13864  0.0000
C10  C  1.0000  0.86701  0.13839  0.13474  0.0000
C11  C  1.0000  0.99641  0.40025  0.14371  0.0000
C12  C  1.0000  0.06232  0.33130  0.14528  0.0000
C13  C  1.0000  0.19282  0.39208  0.15437  0.0000
C14  C  1.0000  0.25830  0.32278  0.15947  0.0000
C15  C  1.0000  0.45341  0.32358  0.16071  0.0000
C16  C  1.0000  0.65658  0.33647  0.14687  0.0000
C17  C  1.0000  0.79282  0.40617  0.14208  0.0000
C18  C  1.0000  0.86223  0.33848  0.14137  0.0000
C19  C  1.0000  0.00211  0.60114  0.14030  0.0000
C20  C  1.0000  0.06863  0.53280  0.14509  0.0000
C21  C  1.0000  0.20384  0.59325  0.14963  0.0000
C22  C  1.0000  0.86638  0.54050  0.13797  0.0000
C23  C  1.0000  0.00586  0.80221  0.13361  0.0000
C24  C  1.0000  0.07190  0.73335  0.13869  0.0000
C25  C  1.0000  0.20591  0.79550  0.14249  0.0000
C26  C  1.0000  0.27509  0.72801  0.14658  0.0000
C27  C  1.0000  0.41065  0.79914  0.14507  0.0000
C28  C  1.0000  0.61203  0.80951  0.13481  0.0000
C29  C  1.0000  0.80706  0.80861  0.12636  0.0000
C30  C  1.0000  0.87421  0.73929  0.12921  0.0000
C31  C  1.0000  0.00312  0.00147  0.13312  0.0000
C32  C  1.0000  0.06928  0.93367  0.13550  0.0000
C33  C  1.0000  0.20049  0.99559  0.14247  0.0000
C34  C  1.0000  0.26874  0.92906  0.14322  0.0000
C35  C  1.0000  0.40129  0.99721  0.14438  0.0000
C36  C  1.0000  0.47040  0.93217  0.14154  0.0000
C37  C  1.0000  0.60334  0.00440  0.13829  0.0000
C38  C  1.0000  0.67302  0.94113  0.13225  0.0000
C39  C  1.0000  0.80464  0.00666  0.12988  0.0000
C40  C  1.0000  0.87174  0.93946  0.12829  0.0000
N1  N  1.0000  0.58046  0.39149  0.15115  0.0000
N2  N  1.0000  0.80922  0.61147  0.13111  0.0000
N3  N  1.0000  0.67784  0.74688  0.12705  0.0000
N4  N  1.0000  0.38597  0.38626  0.17171  0.0000
N5  N  1.0000  0.26216  0.52075  0.15781  0.0000
N6  N  1.0000  0.48572  0.74224  0.15029  0.0000
Os1  Os  1.0000  0.43968  0.57061  0.17630  0.0000
Pt1  Pt  1.0000  0.62439  0.56702  0.13310  0.0000
