data_CNOsRe
_audit_creation_method           'pos2cif.pl'
_cell_length_a               12.3170003891
_cell_length_b               12.3170003891315
_cell_length_c               20
_cell_angle_alpha            90
_cell_angle_beta             90
_cell_angle_gamma            120.010002136348
_symmetry_space_group_H-M        'P1'
_symmetry_Int_Tables_number      '1'
_symmetry_cell_setting           'triclinic'
loop_
_symmetry_equiv_pos_as_xyz
x,y,z

loop_
_atom_site_label
_atom_site_type_symbol
_atom_site_occupancy
_atom_site_fract_x
_atom_site_fract_y
_atom_site_fract_z
_atom_site_U_iso_or_equiv
C1  C  1.0000  0.99811  0.19993  0.13237  0.0000
C2  C  1.0000  0.06366  0.13159  0.12908  0.0000
C3  C  1.0000  0.19500  0.19333  0.12578  0.0000
C4  C  1.0000  0.26201  0.12597  0.12703  0.0000
C5  C  1.0000  0.39353  0.19154  0.13056  0.0000
C6  C  1.0000  0.46391  0.12919  0.13699  0.0000
C7  C  1.0000  0.59694  0.20196  0.14147  0.0000
C8  C  1.0000  0.66644  0.13726  0.14327  0.0000
C9  C  1.0000  0.79902  0.20527  0.14185  0.0000
C10  C  1.0000  0.86713  0.13858  0.13937  0.0000
C11  C  1.0000  0.99584  0.40034  0.14022  0.0000
C12  C  1.0000  0.06169  0.33137  0.13365  0.0000
C13  C  1.0000  0.19308  0.39328  0.13271  0.0000
C14  C  1.0000  0.25865  0.32357  0.12798  0.0000
C15  C  1.0000  0.45283  0.32199  0.13488  0.0000
C16  C  1.0000  0.65673  0.33437  0.14635  0.0000
C17  C  1.0000  0.79259  0.40620  0.14810  0.0000
C18  C  1.0000  0.86202  0.33864  0.14291  0.0000
C19  C  1.0000  0.99946  0.60079  0.14748  0.0000
C20  C  1.0000  0.06655  0.53260  0.14357  0.0000
C21  C  1.0000  0.20202  0.59274  0.14291  0.0000
C22  C  1.0000  0.86440  0.54072  0.15161  0.0000
C23  C  1.0000  0.00501  0.80232  0.14442  0.0000
C24  C  1.0000  0.07118  0.73341  0.14487  0.0000
C25  C  1.0000  0.20504  0.79492  0.14230  0.0000
C26  C  1.0000  0.27465  0.72726  0.14489  0.0000
C27  C  1.0000  0.41089  0.79888  0.14827  0.0000
C28  C  1.0000  0.61623  0.81376  0.16027  0.0000
C29  C  1.0000  0.81029  0.81187  0.15728  0.0000
C30  C  1.0000  0.87434  0.74147  0.15323  0.0000
C31  C  1.0000  0.00238  0.00094  0.13516  0.0000
C32  C  1.0000  0.06840  0.93301  0.13609  0.0000
C33  C  1.0000  0.20003  0.99457  0.13199  0.0000
C34  C  1.0000  0.26825  0.92830  0.13738  0.0000
C35  C  1.0000  0.40106  0.99634  0.13931  0.0000
C36  C  1.0000  0.47062  0.93190  0.14571  0.0000
C37  C  1.0000  0.60353  0.00437  0.14680  0.0000
C38  C  1.0000  0.67514  0.94301  0.15228  0.0000
C39  C  1.0000  0.80619  0.00812  0.14641  0.0000
C40  C  1.0000  0.87256  0.94045  0.14590  0.0000
N1  N  1.0000  0.58005  0.38974  0.15093  0.0000
N2  N  1.0000  0.80554  0.61290  0.15790  0.0000
N3  N  1.0000  0.68272  0.75050  0.16950  0.0000
N4  N  1.0000  0.38778  0.38588  0.13133  0.0000
N5  N  1.0000  0.26015  0.52078  0.13938  0.0000
N6  N  1.0000  0.48737  0.74396  0.15337  0.0000
Os1  Os  1.0000  0.44983  0.56992  0.14267  0.0000
Re1  Re  1.0000  0.61620  0.56130  0.17416  0.0000
