data_CNOsRh
_audit_creation_method           'pos2cif.pl'
_cell_length_a               12.3170003891
_cell_length_b               12.3170003891315
_cell_length_c               20
_cell_angle_alpha            90
_cell_angle_beta             90
_cell_angle_gamma            120.010002136348
_symmetry_space_group_H-M        'P1'
_symmetry_Int_Tables_number      '1'
_symmetry_cell_setting           'triclinic'
loop_
_symmetry_equiv_pos_as_xyz
x,y,z

loop_
_atom_site_label
_atom_site_type_symbol
_atom_site_occupancy
_atom_site_fract_x
_atom_site_fract_y
_atom_site_fract_z
_atom_site_U_iso_or_equiv
C1  C  1.0000  0.99923  0.20031  0.14129  0.0000
C2  C  1.0000  0.06446  0.13184  0.14044  0.0000
C3  C  1.0000  0.19555  0.19328  0.14090  0.0000
C4  C  1.0000  0.26173  0.12580  0.14111  0.0000
C5  C  1.0000  0.39298  0.19186  0.14231  0.0000
C6  C  1.0000  0.46410  0.13017  0.14298  0.0000
C7  C  1.0000  0.59704  0.20134  0.14364  0.0000
C8  C  1.0000  0.66697  0.13781  0.14347  0.0000
C9  C  1.0000  0.79969  0.20531  0.14302  0.0000
C10  C  1.0000  0.86763  0.13879  0.14189  0.0000
C11  C  1.0000  0.99730  0.40060  0.14357  0.0000
C12  C  1.0000  0.06346  0.33170  0.14249  0.0000
C13  C  1.0000  0.19463  0.39230  0.14297  0.0000
C14  C  1.0000  0.26067  0.32387  0.14237  0.0000
C15  C  1.0000  0.45362  0.32255  0.14336  0.0000
C16  C  1.0000  0.65735  0.33412  0.14414  0.0000
C17  C  1.0000  0.79369  0.40572  0.14428  0.0000
C18  C  1.0000  0.86337  0.33875  0.14363  0.0000
C19  C  1.0000  0.00093  0.60054  0.14420  0.0000
C20  C  1.0000  0.06885  0.53287  0.14424  0.0000
C21  C  1.0000  0.20479  0.59401  0.14437  0.0000
C22  C  1.0000  0.86487  0.53975  0.14441  0.0000
C23  C  1.0000  0.00351  0.80103  0.14238  0.0000
C24  C  1.0000  0.07047  0.73279  0.14336  0.0000
C25  C  1.0000  0.20438  0.79510  0.14334  0.0000
C26  C  1.0000  0.27424  0.72805  0.14422  0.0000
C27  C  1.0000  0.40979  0.80187  0.14438  0.0000
C28  C  1.0000  0.61404  0.81344  0.14416  0.0000
C29  C  1.0000  0.80457  0.80743  0.14295  0.0000
C30  C  1.0000  0.87143  0.73843  0.14323  0.0000
C31  C  1.0000  0.00163  0.00024  0.14053  0.0000
C32  C  1.0000  0.06755  0.93233  0.14100  0.0000
C33  C  1.0000  0.19941  0.99451  0.14120  0.0000
C34  C  1.0000  0.26779  0.92858  0.14246  0.0000
C35  C  1.0000  0.40053  0.99742  0.14305  0.0000
C36  C  1.0000  0.47042  0.93419  0.14382  0.0000
C37  C  1.0000  0.60334  0.00532  0.14360  0.0000
C38  C  1.0000  0.67423  0.94338  0.14327  0.0000
C39  C  1.0000  0.80531  0.00750  0.14203  0.0000
C40  C  1.0000  0.87054  0.93866  0.14155  0.0000
N1  N  1.0000  0.58246  0.38807  0.14440  0.0000
N2  N  1.0000  0.80537  0.61068  0.14442  0.0000
N3  N  1.0000  0.67620  0.74677  0.14428  0.0000
N4  N  1.0000  0.38931  0.38818  0.14365  0.0000
N5  N  1.0000  0.26506  0.52082  0.14427  0.0000
N6  N  1.0000  0.48443  0.74717  0.14495  0.0000
Os1  Os  1.0000  0.44613  0.57748  0.14521  0.0000
Rh1  Rh  1.0000  0.62199  0.55843  0.14516  0.0000
