data_CNOsRu
_audit_creation_method           'pos2cif.pl'
_cell_length_a               12.3170003891
_cell_length_b               12.3170003891315
_cell_length_c               20
_cell_angle_alpha            90
_cell_angle_beta             90
_cell_angle_gamma            120.010002136348
_symmetry_space_group_H-M        'P1'
_symmetry_Int_Tables_number      '1'
_symmetry_cell_setting           'triclinic'
loop_
_symmetry_equiv_pos_as_xyz
x,y,z

loop_
_atom_site_label
_atom_site_type_symbol
_atom_site_occupancy
_atom_site_fract_x
_atom_site_fract_y
_atom_site_fract_z
_atom_site_U_iso_or_equiv
C1  C  1.0000  0.99924  0.20050  0.14126  0.0000
C2  C  1.0000  0.06462  0.13212  0.14040  0.0000
C3  C  1.0000  0.19554  0.19327  0.14091  0.0000
C4  C  1.0000  0.26162  0.12568  0.14111  0.0000
C5  C  1.0000  0.39285  0.19120  0.14231  0.0000
C6  C  1.0000  0.46402  0.12953  0.14298  0.0000
C7  C  1.0000  0.59698  0.20122  0.14364  0.0000
C8  C  1.0000  0.66689  0.13762  0.14348  0.0000
C9  C  1.0000  0.79966  0.20551  0.14302  0.0000
C10  C  1.0000  0.86781  0.13924  0.14188  0.0000
C11  C  1.0000  0.99694  0.40062  0.14357  0.0000
C12  C  1.0000  0.06311  0.33171  0.14247  0.0000
C13  C  1.0000  0.19423  0.39260  0.14299  0.0000
C14  C  1.0000  0.26015  0.32374  0.14240  0.0000
C15  C  1.0000  0.45298  0.32147  0.14337  0.0000
C16  C  1.0000  0.65715  0.33390  0.14412  0.0000
C17  C  1.0000  0.79346  0.40609  0.14428  0.0000
C18  C  1.0000  0.86310  0.33894  0.14363  0.0000
C19  C  1.0000  0.00018  0.60070  0.14420  0.0000
C20  C  1.0000  0.06806  0.53298  0.14423  0.0000
C21  C  1.0000  0.20370  0.59371  0.14439  0.0000
C22  C  1.0000  0.86436  0.54019  0.14441  0.0000
C23  C  1.0000  0.00389  0.80146  0.14236  0.0000
C24  C  1.0000  0.07058  0.73298  0.14337  0.0000
C25  C  1.0000  0.20450  0.79494  0.14335  0.0000
C26  C  1.0000  0.27429  0.72772  0.14424  0.0000
C27  C  1.0000  0.41033  0.80074  0.14438  0.0000
C28  C  1.0000  0.61546  0.81382  0.14415  0.0000
C29  C  1.0000  0.80627  0.80895  0.14297  0.0000
C30  C  1.0000  0.87222  0.73942  0.14323  0.0000
C31  C  1.0000  0.00236  0.00091  0.14047  0.0000
C32  C  1.0000  0.06793  0.93275  0.14097  0.0000
C33  C  1.0000  0.19955  0.99443  0.14118  0.0000
C34  C  1.0000  0.26789  0.92834  0.14246  0.0000
C35  C  1.0000  0.40065  0.99677  0.14306  0.0000
C36  C  1.0000  0.47055  0.93325  0.14382  0.0000
C37  C  1.0000  0.60358  0.00509  0.14360  0.0000
C38  C  1.0000  0.67485  0.94363  0.14325  0.0000
C39  C  1.0000  0.80586  0.00802  0.14202  0.0000
C40  C  1.0000  0.87142  0.93968  0.14153  0.0000
N1  N  1.0000  0.58229  0.38847  0.14439  0.0000
N2  N  1.0000  0.80470  0.61167  0.14445  0.0000
N3  N  1.0000  0.67815  0.74788  0.14430  0.0000
N4  N  1.0000  0.38860  0.38678  0.14368  0.0000
N5  N  1.0000  0.26322  0.52079  0.14430  0.0000
N6  N  1.0000  0.48571  0.74624  0.14493  0.0000
Os1  Os  1.0000  0.44727  0.57522  0.14520  0.0000
Ru1  Ru  1.0000  0.61824  0.55866  0.14519  0.0000
