data_CNOsSc
_audit_creation_method           'pos2cif.pl'
_cell_length_a               12.3170003891
_cell_length_b               12.3170003891315
_cell_length_c               20
_cell_angle_alpha            90
_cell_angle_beta             90
_cell_angle_gamma            120.010002136348
_symmetry_space_group_H-M        'P1'
_symmetry_Int_Tables_number      '1'
_symmetry_cell_setting           'triclinic'
loop_
_symmetry_equiv_pos_as_xyz
x,y,z

loop_
_atom_site_label
_atom_site_type_symbol
_atom_site_occupancy
_atom_site_fract_x
_atom_site_fract_y
_atom_site_fract_z
_atom_site_U_iso_or_equiv
C1  C  1.0000  0.00031  0.19970  0.13961  0.0000
C2  C  1.0000  0.06447  0.13063  0.13761  0.0000
C3  C  1.0000  0.19721  0.19507  0.13668  0.0000
C4  C  1.0000  0.26282  0.12726  0.13564  0.0000
C5  C  1.0000  0.39484  0.19495  0.13677  0.0000
C6  C  1.0000  0.46498  0.13230  0.13915  0.0000
C7  C  1.0000  0.59841  0.20271  0.14132  0.0000
C8  C  1.0000  0.66766  0.13847  0.14126  0.0000
C9  C  1.0000  0.80069  0.20446  0.14229  0.0000
C10  C  1.0000  0.86824  0.13708  0.14019  0.0000
C11  C  1.0000  -0.00087  0.39996  0.14471  0.0000
C12  C  1.0000  0.06561  0.33169  0.14171  0.0000
C13  C  1.0000  0.19785  0.39443  0.14100  0.0000
C14  C  1.0000  0.26412  0.32648  0.13785  0.0000
C15  C  1.0000  0.45860  0.32680  0.13864  0.0000
C16  C  1.0000  0.65964  0.33528  0.14558  0.0000
C17  C  1.0000  0.79533  0.40435  0.14862  0.0000
C18  C  1.0000  0.86486  0.33731  0.14545  0.0000
C19  C  1.0000  0.00194  0.59988  0.14647  0.0000
C20  C  1.0000  0.07020  0.53257  0.14534  0.0000
C21  C  1.0000  0.20640  0.59421  0.14463  0.0000
C22  C  1.0000  0.86639  0.53860  0.15063  0.0000
C23  C  1.0000  0.00050  0.79897  0.14119  0.0000
C24  C  1.0000  0.06927  0.73245  0.14365  0.0000
C25  C  1.0000  0.20340  0.79585  0.14232  0.0000
C26  C  1.0000  0.27358  0.72940  0.14411  0.0000
C27  C  1.0000  0.40824  0.80388  0.14423  0.0000
C28  C  1.0000  0.61023  0.81493  0.14457  0.0000
C29  C  1.0000  0.79725  0.79942  0.14118  0.0000
C30  C  1.0000  0.86663  0.73318  0.14518  0.0000
C31  C  1.0000  -0.00082  -0.00230  0.13744  0.0000
C32  C  1.0000  0.06569  0.93069  0.13756  0.0000
C33  C  1.0000  0.19865  0.99509  0.13697  0.0000
C34  C  1.0000  0.26708  0.92962  0.13950  0.0000
C35  C  1.0000  0.40031  -0.00043  0.14007  0.0000
C36  C  1.0000  0.46998  0.93628  0.14217  0.0000
C37  C  1.0000  0.60281  0.00631  0.14121  0.0000
C38  C  1.0000  0.67317  0.94346  0.14138  0.0000
C39  C  1.0000  0.80460  0.00562  0.13947  0.0000
C40  C  1.0000  0.86626  0.93310  0.13864  0.0000
N1  N  1.0000  0.58659  0.39241  0.14743  0.0000
N2  N  1.0000  0.80391  0.60553  0.15545  0.0000
N3  N  1.0000  0.66408  0.73852  0.14624  0.0000
N4  N  1.0000  0.39595  0.39414  0.13617  0.0000
N5  N  1.0000  0.26722  0.52285  0.14375  0.0000
N6  N  1.0000  0.48295  0.75035  0.14529  0.0000
Os1  Os  1.0000  0.45358  0.58261  0.13956  0.0000
Sc1  Sc  1.0000  0.61622  0.55500  0.19608  0.0000
