data_CNOsTa
_audit_creation_method           'pos2cif.pl'
_cell_length_a               12.3170003891
_cell_length_b               12.3170003891315
_cell_length_c               20
_cell_angle_alpha            90
_cell_angle_beta             90
_cell_angle_gamma            120.010002136348
_symmetry_space_group_H-M        'P1'
_symmetry_Int_Tables_number      '1'
_symmetry_cell_setting           'triclinic'
loop_
_symmetry_equiv_pos_as_xyz
x,y,z

loop_
_atom_site_label
_atom_site_type_symbol
_atom_site_occupancy
_atom_site_fract_x
_atom_site_fract_y
_atom_site_fract_z
_atom_site_U_iso_or_equiv
C1  C  1.0000  -0.00187  0.19968  0.13271  0.0000
C2  C  1.0000  0.06376  0.13126  0.12964  0.0000
C3  C  1.0000  0.19493  0.19315  0.12223  0.0000
C4  C  1.0000  0.26203  0.12558  0.12424  0.0000
C5  C  1.0000  0.39407  0.19151  0.12620  0.0000
C6  C  1.0000  0.46419  0.12929  0.13520  0.0000
C7  C  1.0000  0.59725  0.20221  0.14000  0.0000
C8  C  1.0000  0.66649  0.13758  0.14451  0.0000
C9  C  1.0000  0.79912  0.20519  0.14309  0.0000
C10  C  1.0000  0.86741  0.13831  0.14245  0.0000
C11  C  1.0000  0.99589  0.40024  0.13838  0.0000
C12  C  1.0000  0.06180  0.33133  0.13106  0.0000
C13  C  1.0000  0.19376  0.39420  0.12760  0.0000
C14  C  1.0000  0.25945  0.32370  0.12048  0.0000
C15  C  1.0000  0.45499  0.32274  0.12714  0.0000
C16  C  1.0000  0.65695  0.33535  0.14299  0.0000
C17  C  1.0000  0.79238  0.40585  0.14615  0.0000
C18  C  1.0000  0.86192  0.33829  0.14202  0.0000
C19  C  1.0000  -0.00063  0.60066  0.14722  0.0000
C20  C  1.0000  0.06602  0.53248  0.14184  0.0000
C21  C  1.0000  0.20164  0.59243  0.14084  0.0000
C22  C  1.0000  0.86388  0.54073  0.15108  0.0000
C23  C  1.0000  0.00465  0.80197  0.14793  0.0000
C24  C  1.0000  0.07100  0.73324  0.14625  0.0000
C25  C  1.0000  0.20540  0.79505  0.14284  0.0000
C26  C  1.0000  0.27519  0.72749  0.14422  0.0000
C27  C  1.0000  0.41164  0.79837  0.14800  0.0000
C28  C  1.0000  0.61500  0.81441  0.16510  0.0000
C29  C  1.0000  0.81037  0.81198  0.16467  0.0000
C30  C  1.0000  0.87325  0.73989  0.15789  0.0000
C31  C  1.0000  0.00253  0.00098  0.13905  0.0000
C32  C  1.0000  0.06833  0.93276  0.13918  0.0000
C33  C  1.0000  0.19993  0.99453  0.13238  0.0000
C34  C  1.0000  0.26840  0.92839  0.13774  0.0000
C35  C  1.0000  0.40128  0.99632  0.13927  0.0000
C36  C  1.0000  0.47078  0.93185  0.14677  0.0000
C37  C  1.0000  0.60353  0.00488  0.14960  0.0000
C38  C  1.0000  0.67490  0.94384  0.15832  0.0000
C39  C  1.0000  0.80662  0.00857  0.15278  0.0000
C40  C  1.0000  0.87324  0.94067  0.15240  0.0000
N1  N  1.0000  0.58135  0.39179  0.14379  0.0000
N2  N  1.0000  0.80443  0.61059  0.15976  0.0000
N3  N  1.0000  0.68288  0.75321  0.17818  0.0000
N4  N  1.0000  0.38946  0.38583  0.12023  0.0000
N5  N  1.0000  0.25956  0.52162  0.13534  0.0000
N6  N  1.0000  0.48893  0.74338  0.15207  0.0000
Os1  Os  1.0000  0.45044  0.56692  0.13441  0.0000
Ta1  Ta  1.0000  0.60853  0.56085  0.18668  0.0000
