data_CNOsTc
_audit_creation_method           'pos2cif.pl'
_cell_length_a               12.3170003891
_cell_length_b               12.3170003891315
_cell_length_c               20
_cell_angle_alpha            90
_cell_angle_beta             90
_cell_angle_gamma            120.010002136348
_symmetry_space_group_H-M        'P1'
_symmetry_Int_Tables_number      '1'
_symmetry_cell_setting           'triclinic'
loop_
_symmetry_equiv_pos_as_xyz
x,y,z

loop_
_atom_site_label
_atom_site_type_symbol
_atom_site_occupancy
_atom_site_fract_x
_atom_site_fract_y
_atom_site_fract_z
_atom_site_U_iso_or_equiv
C1  C  1.0000  0.99845  0.20004  0.13141  0.0000
C2  C  1.0000  0.06384  0.13150  0.12866  0.0000
C3  C  1.0000  0.19535  0.19337  0.12685  0.0000
C4  C  1.0000  0.26195  0.12584  0.12811  0.0000
C5  C  1.0000  0.39345  0.19153  0.13172  0.0000
C6  C  1.0000  0.46399  0.12929  0.13696  0.0000
C7  C  1.0000  0.59703  0.20179  0.14076  0.0000
C8  C  1.0000  0.66662  0.13744  0.14197  0.0000
C9  C  1.0000  0.79925  0.20535  0.14017  0.0000
C10  C  1.0000  0.86732  0.13871  0.13742  0.0000
C11  C  1.0000  0.99637  0.40041  0.13982  0.0000
C12  C  1.0000  0.06229  0.33150  0.13356  0.0000
C13  C  1.0000  0.19371  0.39318  0.13404  0.0000
C14  C  1.0000  0.25949  0.32380  0.13049  0.0000
C15  C  1.0000  0.45331  0.32201  0.13695  0.0000
C16  C  1.0000  0.65692  0.33427  0.14560  0.0000
C17  C  1.0000  0.79299  0.40609  0.14726  0.0000
C18  C  1.0000  0.86244  0.33879  0.14183  0.0000
C19  C  1.0000  -0.00014  0.60071  0.14764  0.0000
C20  C  1.0000  0.06722  0.53267  0.14387  0.0000
C21  C  1.0000  0.20267  0.59293  0.14393  0.0000
C22  C  1.0000  0.86457  0.54066  0.15122  0.0000
C23  C  1.0000  0.00434  0.80187  0.14423  0.0000
C24  C  1.0000  0.07090  0.73324  0.14524  0.0000
C25  C  1.0000  0.20490  0.79496  0.14302  0.0000
C26  C  1.0000  0.27462  0.72745  0.14608  0.0000
C27  C  1.0000  0.41078  0.79961  0.14951  0.0000
C28  C  1.0000  0.61650  0.81474  0.15946  0.0000
C29  C  1.0000  0.80851  0.81079  0.15556  0.0000
C30  C  1.0000  0.87326  0.74023  0.15264  0.0000
C31  C  1.0000  0.00208  0.00057  0.13430  0.0000
C32  C  1.0000  0.06800  0.93260  0.13583  0.0000
C33  C  1.0000  0.19972  0.99431  0.13229  0.0000
C34  C  1.0000  0.26810  0.92824  0.13785  0.0000
C35  C  1.0000  0.40094  0.99642  0.13942  0.0000
C36  C  1.0000  0.47058  0.93241  0.14575  0.0000
C37  C  1.0000  0.60360  0.00485  0.14582  0.0000
C38  C  1.0000  0.67524  0.94369  0.15050  0.0000
C39  C  1.0000  0.80603  0.00802  0.14410  0.0000
C40  C  1.0000  0.87193  0.93983  0.14416  0.0000
N1  N  1.0000  0.58104  0.38921  0.15016  0.0000
N2  N  1.0000  0.80556  0.61216  0.15735  0.0000
N3  N  1.0000  0.68120  0.75070  0.16677  0.0000
N4  N  1.0000  0.38826  0.38630  0.13578  0.0000
N5  N  1.0000  0.26112  0.52066  0.14097  0.0000
N6  N  1.0000  0.48693  0.74505  0.15572  0.0000
Os1  Os  1.0000  0.44983  0.57195  0.14802  0.0000
Tc1  Tc  1.0000  0.61393  0.55941  0.17114  0.0000
