data_CNOsTi
_audit_creation_method           'pos2cif.pl'
_cell_length_a               12.3170003891
_cell_length_b               12.3170003891315
_cell_length_c               20
_cell_angle_alpha            90
_cell_angle_beta             90
_cell_angle_gamma            120.010002136348
_symmetry_space_group_H-M        'P1'
_symmetry_Int_Tables_number      '1'
_symmetry_cell_setting           'triclinic'
loop_
_symmetry_equiv_pos_as_xyz
x,y,z

loop_
_atom_site_label
_atom_site_type_symbol
_atom_site_occupancy
_atom_site_fract_x
_atom_site_fract_y
_atom_site_fract_z
_atom_site_U_iso_or_equiv
C1  C  1.0000  0.00014  0.20011  0.14075  0.0000
C2  C  1.0000  0.06498  0.13144  0.13870  0.0000
C3  C  1.0000  0.19714  0.19473  0.13624  0.0000
C4  C  1.0000  0.26272  0.12674  0.13515  0.0000
C5  C  1.0000  0.39462  0.19354  0.13531  0.0000
C6  C  1.0000  0.46498  0.13119  0.13887  0.0000
C7  C  1.0000  0.59836  0.20227  0.14104  0.0000
C8  C  1.0000  0.66768  0.13806  0.14368  0.0000
C9  C  1.0000  0.80054  0.20497  0.14427  0.0000
C10  C  1.0000  0.86826  0.13778  0.14354  0.0000
C11  C  1.0000  0.99848  0.40039  0.14372  0.0000
C12  C  1.0000  0.06482  0.33176  0.14118  0.0000
C13  C  1.0000  0.19694  0.39410  0.13935  0.0000
C14  C  1.0000  0.26322  0.32579  0.13573  0.0000
C15  C  1.0000  0.45760  0.32487  0.13444  0.0000
C16  C  1.0000  0.65934  0.33504  0.14287  0.0000
C17  C  1.0000  0.79455  0.40497  0.14649  0.0000
C18  C  1.0000  0.86428  0.33798  0.14487  0.0000
C19  C  1.0000  0.00059  0.60024  0.14562  0.0000
C20  C  1.0000  0.06877  0.53278  0.14370  0.0000
C21  C  1.0000  0.20497  0.59401  0.14216  0.0000
C22  C  1.0000  0.86469  0.53957  0.14922  0.0000
C23  C  1.0000  0.00167  0.79973  0.14260  0.0000
C24  C  1.0000  0.06973  0.73277  0.14332  0.0000
C25  C  1.0000  0.20401  0.79562  0.14151  0.0000
C26  C  1.0000  0.27419  0.72895  0.14230  0.0000
C27  C  1.0000  0.40949  0.80232  0.14366  0.0000
C28  C  1.0000  0.61219  0.81425  0.15173  0.0000
C29  C  1.0000  0.80202  0.80416  0.14797  0.0000
C30  C  1.0000  0.86841  0.73529  0.14788  0.0000
C31  C  1.0000  0.00088  -0.00074  0.13968  0.0000
C32  C  1.0000  0.06666  0.93145  0.13900  0.0000
C33  C  1.0000  0.19920  0.99489  0.13726  0.0000
C34  C  1.0000  0.26761  0.92917  0.13937  0.0000
C35  C  1.0000  0.40080  0.99847  0.14062  0.0000
C36  C  1.0000  0.47055  0.93503  0.14400  0.0000
C37  C  1.0000  0.60336  0.00571  0.14557  0.0000
C38  C  1.0000  0.67396  0.94312  0.14925  0.0000
C39  C  1.0000  0.80549  0.00672  0.14604  0.0000
C40  C  1.0000  0.86878  0.93595  0.14370  0.0000
N1  N  1.0000  0.58595  0.39197  0.14241  0.0000
N2  N  1.0000  0.80221  0.60701  0.15412  0.0000
N3  N  1.0000  0.67125  0.74245  0.15661  0.0000
N4  N  1.0000  0.39423  0.39144  0.13053  0.0000
N5  N  1.0000  0.26486  0.52247  0.14103  0.0000
N6  N  1.0000  0.48507  0.74863  0.14354  0.0000
Os1  Os  1.0000  0.45177  0.57913  0.13199  0.0000
Ti1  Ti  1.0000  0.60503  0.55282  0.17936  0.0000
