data_CNOsV
_audit_creation_method           'pos2cif.pl'
_cell_length_a               12.3170003891
_cell_length_b               12.3170003891315
_cell_length_c               20
_cell_angle_alpha            90
_cell_angle_beta             90
_cell_angle_gamma            120.010002136348
_symmetry_space_group_H-M        'P1'
_symmetry_Int_Tables_number      '1'
_symmetry_cell_setting           'triclinic'
loop_
_symmetry_equiv_pos_as_xyz
x,y,z

loop_
_atom_site_label
_atom_site_type_symbol
_atom_site_occupancy
_atom_site_fract_x
_atom_site_fract_y
_atom_site_fract_z
_atom_site_U_iso_or_equiv
C1  C  1.0000  0.99873  0.20012  0.14110  0.0000
C2  C  1.0000  0.06449  0.13194  0.13913  0.0000
C3  C  1.0000  0.19538  0.19368  0.13089  0.0000
C4  C  1.0000  0.26222  0.12612  0.13145  0.0000
C5  C  1.0000  0.39401  0.19166  0.13091  0.0000
C6  C  1.0000  0.46428  0.12947  0.13787  0.0000
C7  C  1.0000  0.59736  0.20258  0.14144  0.0000
C8  C  1.0000  0.66652  0.13782  0.14647  0.0000
C9  C  1.0000  0.79921  0.20523  0.14669  0.0000
C10  C  1.0000  0.86752  0.13853  0.14825  0.0000
C11  C  1.0000  0.99615  0.40031  0.14075  0.0000
C12  C  1.0000  0.06225  0.33138  0.13701  0.0000
C13  C  1.0000  0.19412  0.39435  0.13142  0.0000
C14  C  1.0000  0.25983  0.32385  0.12596  0.0000
C15  C  1.0000  0.45536  0.32283  0.12874  0.0000
C16  C  1.0000  0.65693  0.33598  0.14209  0.0000
C17  C  1.0000  0.79250  0.40587  0.14468  0.0000
C18  C  1.0000  0.86199  0.33839  0.14393  0.0000
C19  C  1.0000  -0.00037  0.60079  0.14470  0.0000
C20  C  1.0000  0.06629  0.53262  0.14089  0.0000
C21  C  1.0000  0.20175  0.59255  0.13853  0.0000
C22  C  1.0000  0.86406  0.54105  0.14719  0.0000
C23  C  1.0000  0.00447  0.80157  0.14830  0.0000
C24  C  1.0000  0.07086  0.73318  0.14483  0.0000
C25  C  1.0000  0.20534  0.79514  0.14192  0.0000
C26  C  1.0000  0.27498  0.72772  0.14094  0.0000
C27  C  1.0000  0.41126  0.79843  0.14356  0.0000
C28  C  1.0000  0.61423  0.81275  0.15816  0.0000
C29  C  1.0000  0.80774  0.80927  0.16042  0.0000
C30  C  1.0000  0.87223  0.73829  0.15431  0.0000
C31  C  1.0000  0.00297  0.00125  0.14603  0.0000
C32  C  1.0000  0.06860  0.93306  0.14416  0.0000
C33  C  1.0000  0.20011  0.99498  0.13785  0.0000
C34  C  1.0000  0.26840  0.92856  0.13969  0.0000
C35  C  1.0000  0.40125  0.99645  0.14067  0.0000
C36  C  1.0000  0.47067  0.93176  0.14552  0.0000
C37  C  1.0000  0.60347  0.00483  0.14968  0.0000
C38  C  1.0000  0.67422  0.94311  0.15698  0.0000
C39  C  1.0000  0.80595  0.00792  0.15547  0.0000
C40  C  1.0000  0.87226  0.93959  0.15500  0.0000
N1  N  1.0000  0.58266  0.39360  0.14045  0.0000
N2  N  1.0000  0.80403  0.61003  0.15259  0.0000
N3  N  1.0000  0.67868  0.74818  0.16632  0.0000
N4  N  1.0000  0.38931  0.38518  0.12097  0.0000
N5  N  1.0000  0.25989  0.52206  0.13378  0.0000
N6  N  1.0000  0.48846  0.74350  0.14386  0.0000
Os1  Os  1.0000  0.45457  0.56888  0.12664  0.0000
V1  V  1.0000  0.60984  0.56476  0.16374  0.0000
