data_CNOsW
_audit_creation_method           'pos2cif.pl'
_cell_length_a               12.3170003891
_cell_length_b               12.3170003891315
_cell_length_c               20
_cell_angle_alpha            90
_cell_angle_beta             90
_cell_angle_gamma            120.010002136348
_symmetry_space_group_H-M        'P1'
_symmetry_Int_Tables_number      '1'
_symmetry_cell_setting           'triclinic'
loop_
_symmetry_equiv_pos_as_xyz
x,y,z

loop_
_atom_site_label
_atom_site_type_symbol
_atom_site_occupancy
_atom_site_fract_x
_atom_site_fract_y
_atom_site_fract_z
_atom_site_U_iso_or_equiv
C1  C  1.0000  0.99845  0.20011  0.13401  0.0000
C2  C  1.0000  0.06374  0.13148  0.13120  0.0000
C3  C  1.0000  0.19462  0.19287  0.12336  0.0000
C4  C  1.0000  0.26187  0.12546  0.12528  0.0000
C5  C  1.0000  0.39374  0.19095  0.12744  0.0000
C6  C  1.0000  0.46392  0.12885  0.13614  0.0000
C7  C  1.0000  0.59711  0.20237  0.14067  0.0000
C8  C  1.0000  0.66658  0.13764  0.14446  0.0000
C9  C  1.0000  0.79911  0.20532  0.14351  0.0000
C10  C  1.0000  0.86761  0.13871  0.14338  0.0000
C11  C  1.0000  0.99602  0.40047  0.13888  0.0000
C12  C  1.0000  0.06228  0.33168  0.13206  0.0000
C13  C  1.0000  0.19399  0.39397  0.12847  0.0000
C14  C  1.0000  0.25853  0.32318  0.12130  0.0000
C15  C  1.0000  0.45395  0.32197  0.12869  0.0000
C16  C  1.0000  0.65669  0.33500  0.14410  0.0000
C17  C  1.0000  0.79233  0.40614  0.14638  0.0000
C18  C  1.0000  0.86215  0.33863  0.14237  0.0000
C19  C  1.0000  -0.00115  0.60061  0.14689  0.0000
C20  C  1.0000  0.06628  0.53263  0.14200  0.0000
C21  C  1.0000  0.20213  0.59280  0.14082  0.0000
C22  C  1.0000  0.86356  0.54064  0.15037  0.0000
C23  C  1.0000  0.00455  0.80207  0.14848  0.0000
C24  C  1.0000  0.07098  0.73335  0.14619  0.0000
C25  C  1.0000  0.20492  0.79483  0.14276  0.0000
C26  C  1.0000  0.27494  0.72721  0.14351  0.0000
C27  C  1.0000  0.41136  0.79799  0.14665  0.0000
C28  C  1.0000  0.61501  0.81391  0.16284  0.0000
C29  C  1.0000  0.81121  0.81258  0.16428  0.0000
C30  C  1.0000  0.87332  0.74084  0.15743  0.0000
C31  C  1.0000  0.00288  0.00148  0.14077  0.0000
C32  C  1.0000  0.06836  0.93302  0.14050  0.0000
C33  C  1.0000  0.19984  0.99446  0.13337  0.0000
C34  C  1.0000  0.26822  0.92824  0.13810  0.0000
C35  C  1.0000  0.40112  0.99600  0.13946  0.0000
C36  C  1.0000  0.47082  0.93141  0.14595  0.0000
C37  C  1.0000  0.60359  0.00464  0.14868  0.0000
C38  C  1.0000  0.67501  0.94361  0.15698  0.0000
C39  C  1.0000  0.80680  0.00890  0.15319  0.0000
C40  C  1.0000  0.87355  0.94127  0.15358  0.0000
N1  N  1.0000  0.57992  0.39129  0.14679  0.0000
N2  N  1.0000  0.80284  0.61104  0.15820  0.0000
N3  N  1.0000  0.68224  0.75178  0.17558  0.0000
N4  N  1.0000  0.38855  0.38439  0.12048  0.0000
N5  N  1.0000  0.26124  0.52216  0.13552  0.0000
N6  N  1.0000  0.48871  0.74296  0.15015  0.0000
Os1  Os  1.0000  0.45227  0.56637  0.13254  0.0000
W1  W  1.0000  0.61123  0.56389  0.17821  0.0000
