data_CNOsY
_audit_creation_method           'pos2cif.pl'
_cell_length_a               12.3170003891
_cell_length_b               12.3170003891315
_cell_length_c               20
_cell_angle_alpha            90
_cell_angle_beta             90
_cell_angle_gamma            120.010002136348
_symmetry_space_group_H-M        'P1'
_symmetry_Int_Tables_number      '1'
_symmetry_cell_setting           'triclinic'
loop_
_symmetry_equiv_pos_as_xyz
x,y,z

loop_
_atom_site_label
_atom_site_type_symbol
_atom_site_occupancy
_atom_site_fract_x
_atom_site_fract_y
_atom_site_fract_z
_atom_site_U_iso_or_equiv
C1  C  1.0000  0.00013  0.19945  0.13998  0.0000
C2  C  1.0000  0.06427  0.13038  0.13816  0.0000
C3  C  1.0000  0.19704  0.19489  0.13767  0.0000
C4  C  1.0000  0.26286  0.12731  0.13627  0.0000
C5  C  1.0000  0.39488  0.19504  0.13772  0.0000
C6  C  1.0000  0.46498  0.13238  0.13904  0.0000
C7  C  1.0000  0.59841  0.20276  0.14121  0.0000
C8  C  1.0000  0.66763  0.13854  0.14011  0.0000
C9  C  1.0000  0.80062  0.20432  0.14174  0.0000
C10  C  1.0000  0.86811  0.13687  0.13976  0.0000
C11  C  1.0000  -0.00089  0.39979  0.14470  0.0000
C12  C  1.0000  0.06544  0.33147  0.14209  0.0000
C13  C  1.0000  0.19755  0.39415  0.14181  0.0000
C14  C  1.0000  0.26386  0.32620  0.13941  0.0000
C15  C  1.0000  0.45873  0.32690  0.14118  0.0000
C16  C  1.0000  0.65960  0.33514  0.14690  0.0000
C17  C  1.0000  0.79550  0.40408  0.14907  0.0000
C18  C  1.0000  0.86489  0.33707  0.14544  0.0000
C19  C  1.0000  0.00237  0.59981  0.14569  0.0000
C20  C  1.0000  0.07031  0.53244  0.14499  0.0000
C21  C  1.0000  0.20631  0.59413  0.14440  0.0000
C22  C  1.0000  0.86711  0.53836  0.15011  0.0000
C23  C  1.0000  0.00066  0.79902  0.14096  0.0000
C24  C  1.0000  0.06941  0.73247  0.14302  0.0000
C25  C  1.0000  0.20343  0.79591  0.14149  0.0000
C26  C  1.0000  0.27350  0.72937  0.14294  0.0000
C27  C  1.0000  0.40805  0.80395  0.14177  0.0000
C28  C  1.0000  0.60987  0.81510  0.14112  0.0000
C29  C  1.0000  0.79674  0.79880  0.14021  0.0000
C30  C  1.0000  0.86663  0.73288  0.14462  0.0000
C31  C  1.0000  -0.00112  -0.00258  0.13765  0.0000
C32  C  1.0000  0.06569  0.93066  0.13767  0.0000
C33  C  1.0000  0.19868  0.99514  0.13698  0.0000
C34  C  1.0000  0.26713  0.92969  0.13879  0.0000
C35  C  1.0000  0.40033  -0.00035  0.13887  0.0000
C36  C  1.0000  0.46992  0.93634  0.13981  0.0000
C37  C  1.0000  0.60274  0.00645  0.13895  0.0000
C38  C  1.0000  0.67296  0.94356  0.13879  0.0000
C39  C  1.0000  0.80447  0.00543  0.13831  0.0000
C40  C  1.0000  0.86600  0.93281  0.13819  0.0000
N1  N  1.0000  0.58645  0.39207  0.15085  0.0000
N2  N  1.0000  0.80501  0.60526  0.15484  0.0000
N3  N  1.0000  0.66324  0.73844  0.14339  0.0000
N4  N  1.0000  0.39569  0.39390  0.13899  0.0000
N5  N  1.0000  0.26698  0.52272  0.14438  0.0000
N6  N  1.0000  0.48267  0.75027  0.14244  0.0000
Os1  Os  1.0000  0.45201  0.58200  0.14042  0.0000
Y1  Y  1.0000  0.62021  0.56036  0.20904  0.0000
