data_CNOsZn
_audit_creation_method           'pos2cif.pl'
_cell_length_a               12.3170003891
_cell_length_b               12.3170003891315
_cell_length_c               20
_cell_angle_alpha            90
_cell_angle_beta             90
_cell_angle_gamma            120.010002136348
_symmetry_space_group_H-M        'P1'
_symmetry_Int_Tables_number      '1'
_symmetry_cell_setting           'triclinic'
loop_
_symmetry_equiv_pos_as_xyz
x,y,z

loop_
_atom_site_label
_atom_site_type_symbol
_atom_site_occupancy
_atom_site_fract_x
_atom_site_fract_y
_atom_site_fract_z
_atom_site_U_iso_or_equiv
C1  C  1.0000  0.99926  0.19964  0.13854  0.0000
C2  C  1.0000  0.06352  0.13055  0.13576  0.0000
C3  C  1.0000  0.19578  0.19391  0.13616  0.0000
C4  C  1.0000  0.26197  0.12664  0.13428  0.0000
C5  C  1.0000  0.39381  0.19419  0.13637  0.0000
C6  C  1.0000  0.46427  0.13176  0.13714  0.0000
C7  C  1.0000  0.59747  0.20231  0.14023  0.0000
C8  C  1.0000  0.66705  0.13867  0.13927  0.0000
C9  C  1.0000  0.80005  0.20504  0.14109  0.0000
C10  C  1.0000  0.86778  0.13805  0.13820  0.0000
C11  C  1.0000  0.99797  0.40005  0.14615  0.0000
C12  C  1.0000  0.06389  0.33133  0.14268  0.0000
C13  C  1.0000  0.19524  0.39261  0.14410  0.0000
C14  C  1.0000  0.26169  0.32451  0.14088  0.0000
C15  C  1.0000  0.45688  0.32539  0.14262  0.0000
C16  C  1.0000  0.65786  0.33456  0.14698  0.0000
C17  C  1.0000  0.79424  0.40475  0.15019  0.0000
C18  C  1.0000  0.86372  0.33784  0.14603  0.0000
C19  C  1.0000  0.00226  0.60033  0.14780  0.0000
C20  C  1.0000  0.06996  0.53259  0.14758  0.0000
C21  C  1.0000  0.20575  0.59379  0.14793  0.0000
C22  C  1.0000  0.86678  0.53918  0.15249  0.0000
C23  C  1.0000  0.00148  0.79976  0.14014  0.0000
C24  C  1.0000  0.06969  0.73259  0.14363  0.0000
C25  C  1.0000  0.20390  0.79567  0.14182  0.0000
C26  C  1.0000  0.27395  0.72913  0.14527  0.0000
C27  C  1.0000  0.40875  0.80337  0.14406  0.0000
C28  C  1.0000  0.61247  0.81684  0.14237  0.0000
C29  C  1.0000  0.79808  0.80129  0.14087  0.0000
C30  C  1.0000  0.86857  0.73493  0.14551  0.0000
C31  C  1.0000  -0.00079  -0.00190  0.13507  0.0000
C32  C  1.0000  0.06596  0.93114  0.13520  0.0000
C33  C  1.0000  0.19847  0.99478  0.13449  0.0000
C34  C  1.0000  0.26700  0.92910  0.13730  0.0000
C35  C  1.0000  0.39998  0.99877  0.13723  0.0000
C36  C  1.0000  0.46970  0.93557  0.13953  0.0000
C37  C  1.0000  0.60274  0.00677  0.13832  0.0000
C38  C  1.0000  0.67373  0.94509  0.13827  0.0000
C39  C  1.0000  0.80472  0.00662  0.13677  0.0000
C40  C  1.0000  0.86681  0.93453  0.13677  0.0000
N1  N  1.0000  0.58326  0.38862  0.15067  0.0000
N2  N  1.0000  0.80766  0.60894  0.15703  0.0000
N3  N  1.0000  0.66781  0.74356  0.14289  0.0000
N4  N  1.0000  0.39244  0.39188  0.14432  0.0000
N5  N  1.0000  0.26590  0.52131  0.14913  0.0000
N6  N  1.0000  0.48418  0.74979  0.14781  0.0000
Os1  Os  1.0000  0.45020  0.57942  0.15061  0.0000
Zn1  Zn  1.0000  0.63318  0.55592  0.18437  0.0000
