data_CNOsZr
_audit_creation_method           'pos2cif.pl'
_cell_length_a               12.3170003891
_cell_length_b               12.3170003891315
_cell_length_c               20
_cell_angle_alpha            90
_cell_angle_beta             90
_cell_angle_gamma            120.010002136348
_symmetry_space_group_H-M        'P1'
_symmetry_Int_Tables_number      '1'
_symmetry_cell_setting           'triclinic'
loop_
_symmetry_equiv_pos_as_xyz
x,y,z

loop_
_atom_site_label
_atom_site_type_symbol
_atom_site_occupancy
_atom_site_fract_x
_atom_site_fract_y
_atom_site_fract_z
_atom_site_U_iso_or_equiv
C1  C  1.0000  0.00046  0.20019  0.13916  0.0000
C2  C  1.0000  0.06493  0.13128  0.13690  0.0000
C3  C  1.0000  0.19733  0.19491  0.13417  0.0000
C4  C  1.0000  0.26269  0.12673  0.13298  0.0000
C5  C  1.0000  0.39474  0.19360  0.13277  0.0000
C6  C  1.0000  0.46517  0.13134  0.13680  0.0000
C7  C  1.0000  0.59870  0.20206  0.13906  0.0000
C8  C  1.0000  0.66802  0.13811  0.14265  0.0000
C9  C  1.0000  0.80086  0.20492  0.14317  0.0000
C10  C  1.0000  0.86849  0.13758  0.14242  0.0000
C11  C  1.0000  0.99907  0.40054  0.14288  0.0000
C12  C  1.0000  0.06535  0.33189  0.13973  0.0000
C13  C  1.0000  0.19741  0.39417  0.13796  0.0000
C14  C  1.0000  0.26360  0.32607  0.13433  0.0000
C15  C  1.0000  0.45814  0.32481  0.13199  0.0000
C16  C  1.0000  0.66026  0.33459  0.14107  0.0000
C17  C  1.0000  0.79525  0.40485  0.14627  0.0000
C18  C  1.0000  0.86488  0.33778  0.14402  0.0000
C19  C  1.0000  0.00081  0.60018  0.14630  0.0000
C20  C  1.0000  0.06914  0.53283  0.14348  0.0000
C21  C  1.0000  0.20547  0.59451  0.14208  0.0000
C22  C  1.0000  0.86539  0.53920  0.15065  0.0000
C23  C  1.0000  0.00125  0.79951  0.14277  0.0000
C24  C  1.0000  0.06962  0.73297  0.14393  0.0000
C25  C  1.0000  0.20363  0.79595  0.14189  0.0000
C26  C  1.0000  0.27403  0.72937  0.14318  0.0000
C27  C  1.0000  0.40900  0.80339  0.14552  0.0000
C28  C  1.0000  0.61165  0.81565  0.15478  0.0000
C29  C  1.0000  0.80128  0.80319  0.14841  0.0000
C30  C  1.0000  0.86779  0.73505  0.14918  0.0000
C31  C  1.0000  0.00026  -0.00117  0.13841  0.0000
C32  C  1.0000  0.06612  0.93110  0.13801  0.0000
C33  C  1.0000  0.19887  0.99492  0.13584  0.0000
C34  C  1.0000  0.26735  0.92939  0.13877  0.0000
C35  C  1.0000  0.40071  0.99901  0.13978  0.0000
C36  C  1.0000  0.47063  0.93604  0.14464  0.0000
C37  C  1.0000  0.60327  0.00610  0.14593  0.0000
C38  C  1.0000  0.67404  0.94357  0.15064  0.0000
C39  C  1.0000  0.80567  0.00679  0.14584  0.0000
C40  C  1.0000  0.86806  0.93532  0.14321  0.0000
N1  N  1.0000  0.58671  0.39125  0.13985  0.0000
N2  N  1.0000  0.80234  0.60663  0.15783  0.0000
N3  N  1.0000  0.66965  0.74113  0.15971  0.0000
N4  N  1.0000  0.39566  0.39259  0.12968  0.0000
N5  N  1.0000  0.26557  0.52293  0.14024  0.0000
N6  N  1.0000  0.48473  0.75036  0.14652  0.0000
Os1  Os  1.0000  0.45212  0.58223  0.13297  0.0000
Zr1  Zr  1.0000  0.60087  0.54574  0.19359  0.0000
