data_CNPd
_audit_creation_method           'pos2cif.pl'
_cell_length_a               12.3170003891
_cell_length_b               12.3170003891315
_cell_length_c               20
_cell_angle_alpha            90
_cell_angle_beta             90
_cell_angle_gamma            120.010002136348
_symmetry_space_group_H-M        'P1'
_symmetry_Int_Tables_number      '1'
_symmetry_cell_setting           'triclinic'
loop_
_symmetry_equiv_pos_as_xyz
x,y,z

loop_
_atom_site_label
_atom_site_type_symbol
_atom_site_occupancy
_atom_site_fract_x
_atom_site_fract_y
_atom_site_fract_z
_atom_site_U_iso_or_equiv
C1  C  1.0000  0.99747  0.19955  0.14132  0.0000
C2  C  1.0000  0.06431  0.13237  0.14050  0.0000
C3  C  1.0000  0.19580  0.19475  0.14098  0.0000
C4  C  1.0000  0.26302  0.12765  0.14119  0.0000
C5  C  1.0000  0.39398  0.19257  0.14235  0.0000
C6  C  1.0000  0.46444  0.13008  0.14299  0.0000
C7  C  1.0000  0.59718  0.20207  0.14363  0.0000
C8  C  1.0000  0.66589  0.13703  0.14343  0.0000
C9  C  1.0000  0.79833  0.20436  0.14300  0.0000
C10  C  1.0000  0.86617  0.13769  0.14189  0.0000
C11  C  1.0000  0.99495  0.39994  0.14348  0.0000
C12  C  1.0000  0.06028  0.33072  0.14245  0.0000
C13  C  1.0000  0.19188  0.39452  0.14295  0.0000
C14  C  1.0000  0.26052  0.32516  0.14243  0.0000
C15  C  1.0000  0.45532  0.32424  0.14346  0.0000
C16  C  1.0000  0.65670  0.33601  0.14418  0.0000
C17  C  1.0000  0.79295  0.40576  0.14428  0.0000
C18  C  1.0000  0.86073  0.33774  0.14360  0.0000
C19  C  1.0000  0.00191  0.60162  0.14405  0.0000
C20  C  1.0000  0.06548  0.53218  0.14408  0.0000
C21  C  1.0000  0.19972  0.59250  0.14423  0.0000
C22  C  1.0000  0.86767  0.54130  0.14431  0.0000
C23  C  1.0000  0.00710  0.80308  0.14233  0.0000
C24  C  1.0000  0.07243  0.73386  0.14328  0.0000
C25  C  1.0000  0.20664  0.79606  0.14332  0.0000
C26  C  1.0000  0.27443  0.72804  0.14421  0.0000
C27  C  1.0000  0.41068  0.79780  0.14438  0.0000
C28  C  1.0000  0.61207  0.80957  0.14420  0.0000
C29  C  1.0000  0.80685  0.80862  0.14300  0.0000
C30  C  1.0000  0.87550  0.73928  0.14320  0.0000
C31  C  1.0000  0.00306  0.00143  0.14056  0.0000
C32  C  1.0000  0.06990  0.93425  0.14101  0.0000
C33  C  1.0000  0.20121  0.99611  0.14123  0.0000
C34  C  1.0000  0.26904  0.92944  0.14246  0.0000
C35  C  1.0000  0.40148  0.99677  0.14305  0.0000
C36  C  1.0000  0.47018  0.93173  0.14379  0.0000
C37  C  1.0000  0.60293  0.00372  0.14355  0.0000
C38  C  1.0000  0.67339  0.94123  0.14322  0.0000
C39  C  1.0000  0.80436  0.00614  0.14202  0.0000
C40  C  1.0000  0.87157  0.93904  0.14156  0.0000
N1  N  1.0000  0.58259  0.39140  0.14458  0.0000
N2  N  1.0000  0.81287  0.61276  0.14436  0.0000
N3  N  1.0000  0.67901  0.74761  0.14443  0.0000
N4  N  1.0000  0.38836  0.38618  0.14372  0.0000
N5  N  1.0000  0.25453  0.52104  0.14406  0.0000
N6  N  1.0000  0.48478  0.74240  0.14502  0.0000
Pd1  Pd  1.0000  0.43482  0.56283  0.14520  0.0000
Pd2  Pd  1.0000  0.63257  0.57096  0.14543  0.0000
