data_CNPdPt
_audit_creation_method           'pos2cif.pl'
_cell_length_a               12.3170003891
_cell_length_b               12.3170003891315
_cell_length_c               20
_cell_angle_alpha            90
_cell_angle_beta             90
_cell_angle_gamma            120.010002136348
_symmetry_space_group_H-M        'P1'
_symmetry_Int_Tables_number      '1'
_symmetry_cell_setting           'triclinic'
loop_
_symmetry_equiv_pos_as_xyz
x,y,z

loop_
_atom_site_label
_atom_site_type_symbol
_atom_site_occupancy
_atom_site_fract_x
_atom_site_fract_y
_atom_site_fract_z
_atom_site_U_iso_or_equiv
C1  C  1.0000  0.99722  0.19954  0.14129  0.0000
C2  C  1.0000  0.06426  0.13254  0.14045  0.0000
C3  C  1.0000  0.19553  0.19463  0.14094  0.0000
C4  C  1.0000  0.26303  0.12772  0.14116  0.0000
C5  C  1.0000  0.39395  0.19245  0.14235  0.0000
C6  C  1.0000  0.46448  0.13001  0.14300  0.0000
C7  C  1.0000  0.59714  0.20215  0.14365  0.0000
C8  C  1.0000  0.66576  0.13686  0.14344  0.0000
C9  C  1.0000  0.79814  0.20438  0.14301  0.0000
C10  C  1.0000  0.86596  0.13765  0.14189  0.0000
C11  C  1.0000  0.99450  0.39995  0.14349  0.0000
C12  C  1.0000  0.05973  0.33064  0.14245  0.0000
C13  C  1.0000  0.19117  0.39437  0.14295  0.0000
C14  C  1.0000  0.25966  0.32483  0.14242  0.0000
C15  C  1.0000  0.45431  0.32380  0.14348  0.0000
C16  C  1.0000  0.65678  0.33613  0.14420  0.0000
C17  C  1.0000  0.79273  0.40604  0.14429  0.0000
C18  C  1.0000  0.86044  0.33779  0.14361  0.0000
C19  C  1.0000  0.00170  0.60183  0.14408  0.0000
C20  C  1.0000  0.06497  0.53222  0.14410  0.0000
C21  C  1.0000  0.19913  0.59240  0.14425  0.0000
C22  C  1.0000  0.86755  0.54151  0.14432  0.0000
C23  C  1.0000  0.00792  0.80359  0.14233  0.0000
C24  C  1.0000  0.07285  0.73409  0.14329  0.0000
C25  C  1.0000  0.20696  0.79613  0.14333  0.0000
C26  C  1.0000  0.27454  0.72790  0.14423  0.0000
C27  C  1.0000  0.41088  0.79743  0.14439  0.0000
C28  C  1.0000  0.61217  0.80882  0.14423  0.0000
C29  C  1.0000  0.80868  0.80982  0.14301  0.0000
C30  C  1.0000  0.87684  0.74063  0.14319  0.0000
C31  C  1.0000  0.00351  0.00181  0.14051  0.0000
C32  C  1.0000  0.07041  0.93469  0.14098  0.0000
C33  C  1.0000  0.20158  0.99630  0.14120  0.0000
C34  C  1.0000  0.26937  0.92953  0.14246  0.0000
C35  C  1.0000  0.40174  0.99671  0.14306  0.0000
C36  C  1.0000  0.47033  0.93141  0.14380  0.0000
C37  C  1.0000  0.60301  0.00333  0.14356  0.0000
C38  C  1.0000  0.67349  0.94066  0.14323  0.0000
C39  C  1.0000  0.80446  0.00619  0.14201  0.0000
C40  C  1.0000  0.87224  0.93973  0.14154  0.0000
N1  N  1.0000  0.58219  0.39181  0.14459  0.0000
N2  N  1.0000  0.81313  0.61371  0.14434  0.0000
N3  N  1.0000  0.68069  0.74751  0.14446  0.0000
N4  N  1.0000  0.38735  0.38538  0.14373  0.0000
N5  N  1.0000  0.25369  0.52090  0.14408  0.0000
N6  N  1.0000  0.48512  0.74186  0.14503  0.0000
Pd1  Pd  1.0000  0.43328  0.56138  0.14521  0.0000
Pt1  Pt  1.0000  0.63246  0.57038  0.14531  0.0000
