data_CNPdRe
_audit_creation_method           'pos2cif.pl'
_cell_length_a               12.3170003891
_cell_length_b               12.3170003891315
_cell_length_c               20
_cell_angle_alpha            90
_cell_angle_beta             90
_cell_angle_gamma            120.010002136348
_symmetry_space_group_H-M        'P1'
_symmetry_Int_Tables_number      '1'
_symmetry_cell_setting           'triclinic'
loop_
_symmetry_equiv_pos_as_xyz
x,y,z

loop_
_atom_site_label
_atom_site_type_symbol
_atom_site_occupancy
_atom_site_fract_x
_atom_site_fract_y
_atom_site_fract_z
_atom_site_U_iso_or_equiv
C1  C  1.0000  0.00007  0.20154  0.14176  0.0000
C2  C  1.0000  0.06671  0.13445  0.14115  0.0000
C3  C  1.0000  0.19801  0.19663  0.14171  0.0000
C4  C  1.0000  0.26298  0.12744  0.14159  0.0000
C5  C  1.0000  0.39434  0.19091  0.14226  0.0000
C6  C  1.0000  0.46466  0.12814  0.14257  0.0000
C7  C  1.0000  0.59752  0.19847  0.14285  0.0000
C8  C  1.0000  0.66706  0.13518  0.14254  0.0000
C9  C  1.0000  0.79972  0.20458  0.14238  0.0000
C10  C  1.0000  0.86824  0.13892  0.14175  0.0000
C11  C  1.0000  0.99657  0.40091  0.14312  0.0000
C12  C  1.0000  0.06347  0.33264  0.14272  0.0000
C13  C  1.0000  0.19553  0.39623  0.14303  0.0000
C14  C  1.0000  0.26391  0.32811  0.14291  0.0000
C15  C  1.0000  0.45515  0.32053  0.14339  0.0000
C16  C  1.0000  0.65904  0.33031  0.14390  0.0000
C17  C  1.0000  0.79356  0.40519  0.14393  0.0000
C18  C  1.0000  0.86301  0.33805  0.14301  0.0000
C19  C  1.0000  0.99719  0.60118  0.14376  0.0000
C20  C  1.0000  0.06442  0.53335  0.14358  0.0000
C21  C  1.0000  0.19971  0.59438  0.14362  0.0000
C22  C  1.0000  0.86192  0.53965  0.14445  0.0000
C23  C  1.0000  0.00406  0.80268  0.14194  0.0000
C24  C  1.0000  0.06986  0.73370  0.14294  0.0000
C25  C  1.0000  0.20377  0.79569  0.14311  0.0000
C26  C  1.0000  0.27311  0.72857  0.14388  0.0000
C27  C  1.0000  0.40960  0.79911  0.14422  0.0000
C28  C  1.0000  0.61408  0.81072  0.14460  0.0000
C29  C  1.0000  0.80779  0.81054  0.14310  0.0000
C30  C  1.0000  0.87305  0.74220  0.14294  0.0000
C31  C  1.0000  0.00382  0.00281  0.14076  0.0000
C32  C  1.0000  0.06871  0.93432  0.14111  0.0000
C33  C  1.0000  0.20032  0.99607  0.14153  0.0000
C34  C  1.0000  0.26786  0.92904  0.14248  0.0000
C35  C  1.0000  0.40060  0.99589  0.14275  0.0000
C36  C  1.0000  0.47028  0.93193  0.14334  0.0000
C37  C  1.0000  0.60325  0.00258  0.14284  0.0000
C38  C  1.0000  0.67471  0.94127  0.14284  0.0000
C39  C  1.0000  0.80606  0.00782  0.14182  0.0000
C40  C  1.0000  0.87261  0.94094  0.14139  0.0000
N1  N  1.0000  0.58534  0.38593  0.14542  0.0000
N2  N  1.0000  0.80117  0.61301  0.14530  0.0000
N3  N  1.0000  0.67877  0.74523  0.14595  0.0000
N4  N  1.0000  0.39342  0.38761  0.14370  0.0000
N5  N  1.0000  0.25728  0.52377  0.14310  0.0000
N6  N  1.0000  0.48567  0.74621  0.14527  0.0000
Pd1  Pd  1.0000  0.43985  0.57270  0.14377  0.0000
Re1  Re  1.0000  0.61922  0.55400  0.14990  0.0000
