data_CNPdRh
_audit_creation_method           'pos2cif.pl'
_cell_length_a               12.3170003891
_cell_length_b               12.3170003891315
_cell_length_c               20
_cell_angle_alpha            90
_cell_angle_beta             90
_cell_angle_gamma            120.010002136348
_symmetry_space_group_H-M        'P1'
_symmetry_Int_Tables_number      '1'
_symmetry_cell_setting           'triclinic'
loop_
_symmetry_equiv_pos_as_xyz
x,y,z

loop_
_atom_site_label
_atom_site_type_symbol
_atom_site_occupancy
_atom_site_fract_x
_atom_site_fract_y
_atom_site_fract_z
_atom_site_U_iso_or_equiv
C1  C  1.0000  0.99842  0.20032  0.14135  0.0000
C2  C  1.0000  0.06517  0.13311  0.14057  0.0000
C3  C  1.0000  0.19680  0.19564  0.14105  0.0000
C4  C  1.0000  0.26316  0.12774  0.14123  0.0000
C5  C  1.0000  0.39431  0.19238  0.14236  0.0000
C6  C  1.0000  0.46449  0.12966  0.14298  0.0000
C7  C  1.0000  0.59729  0.20058  0.14360  0.0000
C8  C  1.0000  0.66635  0.13626  0.14341  0.0000
C9  C  1.0000  0.79891  0.20445  0.14299  0.0000
C10  C  1.0000  0.86690  0.13812  0.14191  0.0000
C11  C  1.0000  0.99574  0.40045  0.14348  0.0000
C12  C  1.0000  0.06151  0.33144  0.14247  0.0000
C13  C  1.0000  0.19339  0.39499  0.14297  0.0000
C14  C  1.0000  0.26239  0.32658  0.14246  0.0000
C15  C  1.0000  0.45586  0.32369  0.14344  0.0000
C16  C  1.0000  0.65746  0.33369  0.14414  0.0000
C17  C  1.0000  0.79320  0.40545  0.14424  0.0000
C18  C  1.0000  0.86161  0.33798  0.14358  0.0000
C19  C  1.0000  0.00002  0.60148  0.14408  0.0000
C20  C  1.0000  0.06513  0.53269  0.14410  0.0000
C21  C  1.0000  0.20008  0.59335  0.14424  0.0000
C22  C  1.0000  0.86515  0.54078  0.14430  0.0000
C23  C  1.0000  0.00566  0.80275  0.14235  0.0000
C24  C  1.0000  0.07122  0.73378  0.14331  0.0000
C25  C  1.0000  0.20543  0.79599  0.14333  0.0000
C26  C  1.0000  0.27393  0.72852  0.14420  0.0000
C27  C  1.0000  0.41016  0.79892  0.14437  0.0000
C28  C  1.0000  0.61270  0.80941  0.14417  0.0000
C29  C  1.0000  0.80628  0.80863  0.14297  0.0000
C30  C  1.0000  0.87405  0.74002  0.14317  0.0000
C31  C  1.0000  0.00312  0.00179  0.14062  0.0000
C32  C  1.0000  0.06932  0.93421  0.14106  0.0000
C33  C  1.0000  0.20082  0.99616  0.14128  0.0000
C34  C  1.0000  0.26848  0.92933  0.14248  0.0000
C35  C  1.0000  0.40107  0.99667  0.14304  0.0000
C36  C  1.0000  0.47018  0.93231  0.14376  0.0000
C37  C  1.0000  0.60308  0.00320  0.14353  0.0000
C38  C  1.0000  0.67382  0.94099  0.14319  0.0000
C39  C  1.0000  0.80482  0.00660  0.14202  0.0000
C40  C  1.0000  0.87144  0.93914  0.14158  0.0000
N1  N  1.0000  0.58407  0.38925  0.14454  0.0000
N2  N  1.0000  0.80828  0.61266  0.14432  0.0000
N3  N  1.0000  0.67783  0.74495  0.14438  0.0000
N4  N  1.0000  0.39087  0.38786  0.14367  0.0000
N5  N  1.0000  0.25550  0.52175  0.14408  0.0000
N6  N  1.0000  0.48481  0.74475  0.14502  0.0000
Pd1  Pd  1.0000  0.43732  0.56866  0.14511  0.0000
Rh1  Rh  1.0000  0.62945  0.56201  0.14544  0.0000
