data_CNPdRu
_audit_creation_method           'pos2cif.pl'
_cell_length_a               12.3170003891
_cell_length_b               12.3170003891315
_cell_length_c               20
_cell_angle_alpha            90
_cell_angle_beta             90
_cell_angle_gamma            120.010002136348
_symmetry_space_group_H-M        'P1'
_symmetry_Int_Tables_number      '1'
_symmetry_cell_setting           'triclinic'
loop_
_symmetry_equiv_pos_as_xyz
x,y,z

loop_
_atom_site_label
_atom_site_type_symbol
_atom_site_occupancy
_atom_site_fract_x
_atom_site_fract_y
_atom_site_fract_z
_atom_site_U_iso_or_equiv
C1  C  1.0000  0.99918  0.20093  0.14045  0.0000
C2  C  1.0000  0.06525  0.13315  0.13833  0.0000
C3  C  1.0000  0.19691  0.19564  0.13402  0.0000
C4  C  1.0000  0.26295  0.12746  0.13397  0.0000
C5  C  1.0000  0.39450  0.19220  0.13499  0.0000
C6  C  1.0000  0.46426  0.12912  0.13892  0.0000
C7  C  1.0000  0.59722  0.20088  0.14131  0.0000
C8  C  1.0000  0.66646  0.13649  0.14393  0.0000
C9  C  1.0000  0.79913  0.20478  0.14432  0.0000
C10  C  1.0000  0.86746  0.13858  0.14472  0.0000
C11  C  1.0000  0.99632  0.40074  0.14085  0.0000
C12  C  1.0000  0.06306  0.33245  0.13831  0.0000
C13  C  1.0000  0.19522  0.39599  0.13357  0.0000
C14  C  1.0000  0.26289  0.32690  0.13175  0.0000
C15  C  1.0000  0.45639  0.32369  0.13678  0.0000
C16  C  1.0000  0.65718  0.33390  0.14453  0.0000
C17  C  1.0000  0.79272  0.40536  0.14596  0.0000
C18  C  1.0000  0.86212  0.33828  0.14361  0.0000
C19  C  1.0000  -0.00151  0.60104  0.14371  0.0000
C20  C  1.0000  0.06542  0.53297  0.14053  0.0000
C21  C  1.0000  0.20129  0.59372  0.13750  0.0000
C22  C  1.0000  0.86290  0.54025  0.14759  0.0000
C23  C  1.0000  0.00387  0.80201  0.14410  0.0000
C24  C  1.0000  0.07015  0.73350  0.14225  0.0000
C25  C  1.0000  0.20453  0.79550  0.14014  0.0000
C26  C  1.0000  0.27402  0.72828  0.14019  0.0000
C27  C  1.0000  0.41039  0.79798  0.14400  0.0000
C28  C  1.0000  0.61234  0.80960  0.15611  0.0000
C29  C  1.0000  0.80623  0.80923  0.15581  0.0000
C30  C  1.0000  0.87246  0.74027  0.15120  0.0000
C31  C  1.0000  0.00255  0.00170  0.14182  0.0000
C32  C  1.0000  0.06834  0.93370  0.14044  0.0000
C33  C  1.0000  0.20002  0.99557  0.13701  0.0000
C34  C  1.0000  0.26798  0.92889  0.13878  0.0000
C35  C  1.0000  0.40082  0.99613  0.14023  0.0000
C36  C  1.0000  0.47013  0.93167  0.14429  0.0000
C37  C  1.0000  0.60300  0.00319  0.14657  0.0000
C38  C  1.0000  0.67362  0.94105  0.15186  0.0000
C39  C  1.0000  0.80512  0.00720  0.14953  0.0000
C40  C  1.0000  0.87133  0.93954  0.14883  0.0000
N1  N  1.0000  0.58322  0.39022  0.14903  0.0000
N2  N  1.0000  0.80374  0.61188  0.15379  0.0000
N3  N  1.0000  0.67821  0.74598  0.16544  0.0000
N4  N  1.0000  0.39218  0.38774  0.13066  0.0000
N5  N  1.0000  0.25902  0.52353  0.13174  0.0000
N6  N  1.0000  0.48544  0.74317  0.14741  0.0000
Pd1  Pd  1.0000  0.44388  0.56818  0.12860  0.0000
Ru1  Ru  1.0000  0.62712  0.56091  0.17247  0.0000
