data_CNPdSc
_audit_creation_method           'pos2cif.pl'
_cell_length_a               12.3170003891
_cell_length_b               12.3170003891315
_cell_length_c               20
_cell_angle_alpha            90
_cell_angle_beta             90
_cell_angle_gamma            120.010002136348
_symmetry_space_group_H-M        'P1'
_symmetry_Int_Tables_number      '1'
_symmetry_cell_setting           'triclinic'
loop_
_symmetry_equiv_pos_as_xyz
x,y,z

loop_
_atom_site_label
_atom_site_type_symbol
_atom_site_occupancy
_atom_site_fract_x
_atom_site_fract_y
_atom_site_fract_z
_atom_site_U_iso_or_equiv
C1  C  1.0000  -0.00120  0.20020  0.13161  0.0000
C2  C  1.0000  0.06522  0.13280  0.12911  0.0000
C3  C  1.0000  0.19738  0.19639  0.12882  0.0000
C4  C  1.0000  0.26374  0.12823  0.13077  0.0000
C5  C  1.0000  0.39534  0.19314  0.13472  0.0000
C6  C  1.0000  0.46471  0.12981  0.13849  0.0000
C7  C  1.0000  0.59776  0.20135  0.14170  0.0000
C8  C  1.0000  0.66651  0.13654  0.14134  0.0000
C9  C  1.0000  0.79907  0.20394  0.13932  0.0000
C10  C  1.0000  0.86705  0.13735  0.13613  0.0000
C11  C  1.0000  0.99586  0.39993  0.13800  0.0000
C12  C  1.0000  0.06254  0.33181  0.13291  0.0000
C13  C  1.0000  0.19496  0.39701  0.13239  0.0000
C14  C  1.0000  0.26319  0.32758  0.13249  0.0000
C15  C  1.0000  0.45764  0.32479  0.14088  0.0000
C16  C  1.0000  0.65799  0.33445  0.14658  0.0000
C17  C  1.0000  0.79344  0.40471  0.14680  0.0000
C18  C  1.0000  0.86211  0.33712  0.14098  0.0000
C19  C  1.0000  -0.00092  0.60074  0.14454  0.0000
C20  C  1.0000  0.06449  0.53240  0.14088  0.0000
C21  C  1.0000  0.19935  0.59298  0.14021  0.0000
C22  C  1.0000  0.86463  0.53997  0.14937  0.0000
C23  C  1.0000  0.00365  0.80172  0.14128  0.0000
C24  C  1.0000  0.07028  0.73363  0.14243  0.0000
C25  C  1.0000  0.20465  0.79603  0.14148  0.0000
C26  C  1.0000  0.27350  0.72847  0.14471  0.0000
C27  C  1.0000  0.40975  0.79834  0.15010  0.0000
C28  C  1.0000  0.61230  0.81145  0.15668  0.0000
C29  C  1.0000  0.80623  0.80842  0.15135  0.0000
C30  C  1.0000  0.87165  0.73814  0.14926  0.0000
C31  C  1.0000  0.00240  0.00102  0.13300  0.0000
C32  C  1.0000  0.06826  0.93314  0.13457  0.0000
C33  C  1.0000  0.20048  0.99610  0.13315  0.0000
C34  C  1.0000  0.26818  0.92959  0.13801  0.0000
C35  C  1.0000  0.40089  0.99667  0.13978  0.0000
C36  C  1.0000  0.46978  0.93187  0.14514  0.0000
C37  C  1.0000  0.60276  0.00344  0.14412  0.0000
C38  C  1.0000  0.67344  0.94135  0.14652  0.0000
C39  C  1.0000  0.80475  0.00607  0.14062  0.0000
C40  C  1.0000  0.87132  0.93837  0.14057  0.0000
N1  N  1.0000  0.58518  0.39187  0.15137  0.0000
N2  N  1.0000  0.80552  0.60936  0.15640  0.0000
N3  N  1.0000  0.67907  0.74915  0.16379  0.0000
N4  N  1.0000  0.39214  0.38714  0.14074  0.0000
N5  N  1.0000  0.25662  0.52414  0.13497  0.0000
N6  N  1.0000  0.48500  0.74444  0.15941  0.0000
Pd1  Pd  1.0000  0.44265  0.56354  0.15653  0.0000
Sc1  Sc  1.0000  0.62573  0.56445  0.19794  0.0000
