data_CNPdTa
_audit_creation_method           'pos2cif.pl'
_cell_length_a               12.3170003891
_cell_length_b               12.3170003891315
_cell_length_c               20
_cell_angle_alpha            90
_cell_angle_beta             90
_cell_angle_gamma            120.010002136348
_symmetry_space_group_H-M        'P1'
_symmetry_Int_Tables_number      '1'
_symmetry_cell_setting           'triclinic'
loop_
_symmetry_equiv_pos_as_xyz
x,y,z

loop_
_atom_site_label
_atom_site_type_symbol
_atom_site_occupancy
_atom_site_fract_x
_atom_site_fract_y
_atom_site_fract_z
_atom_site_U_iso_or_equiv
C1  C  1.0000  -0.00066  0.20053  0.13554  0.0000
C2  C  1.0000  0.06561  0.13322  0.13302  0.0000
C3  C  1.0000  0.19722  0.19640  0.12774  0.0000
C4  C  1.0000  0.26334  0.12788  0.12929  0.0000
C5  C  1.0000  0.39515  0.19251  0.13009  0.0000
C6  C  1.0000  0.46478  0.12942  0.13582  0.0000
C7  C  1.0000  0.59841  0.20094  0.13895  0.0000
C8  C  1.0000  0.66705  0.13588  0.14331  0.0000
C9  C  1.0000  0.79942  0.20400  0.14249  0.0000
C10  C  1.0000  0.86781  0.13766  0.14237  0.0000
C11  C  1.0000  0.99622  0.40044  0.13869  0.0000
C12  C  1.0000  0.06283  0.33196  0.13334  0.0000
C13  C  1.0000  0.19457  0.39664  0.12810  0.0000
C14  C  1.0000  0.26248  0.32762  0.12557  0.0000
C15  C  1.0000  0.45689  0.32433  0.13048  0.0000
C16  C  1.0000  0.65951  0.33289  0.14116  0.0000
C17  C  1.0000  0.79403  0.40525  0.14580  0.0000
C18  C  1.0000  0.86280  0.33737  0.14192  0.0000
C19  C  1.0000  -0.00237  0.60073  0.14740  0.0000
C20  C  1.0000  0.06405  0.53276  0.14104  0.0000
C21  C  1.0000  0.19936  0.59381  0.13786  0.0000
C22  C  1.0000  0.86338  0.53934  0.15208  0.0000
C23  C  1.0000  0.00380  0.80217  0.14654  0.0000
C24  C  1.0000  0.07039  0.73397  0.14598  0.0000
C25  C  1.0000  0.20406  0.79582  0.14307  0.0000
C26  C  1.0000  0.27348  0.72819  0.14360  0.0000
C27  C  1.0000  0.40993  0.79836  0.14902  0.0000
C28  C  1.0000  0.61299  0.81096  0.16180  0.0000
C29  C  1.0000  0.80909  0.81027  0.15909  0.0000
C30  C  1.0000  0.87261  0.74063  0.15510  0.0000
C31  C  1.0000  0.00306  0.00186  0.13938  0.0000
C32  C  1.0000  0.06830  0.93350  0.13943  0.0000
C33  C  1.0000  0.20036  0.99611  0.13495  0.0000
C34  C  1.0000  0.26825  0.92958  0.13909  0.0000
C35  C  1.0000  0.40114  0.99674  0.13977  0.0000
C36  C  1.0000  0.47032  0.93175  0.14660  0.0000
C37  C  1.0000  0.60317  0.00292  0.14826  0.0000
C38  C  1.0000  0.67431  0.94116  0.15472  0.0000
C39  C  1.0000  0.80615  0.00726  0.14973  0.0000
C40  C  1.0000  0.87273  0.94003  0.14923  0.0000
N1  N  1.0000  0.58599  0.39109  0.14163  0.0000
N2  N  1.0000  0.80206  0.61021  0.16151  0.0000
N3  N  1.0000  0.68042  0.74717  0.17118  0.0000
N4  N  1.0000  0.39339  0.38850  0.12534  0.0000
N5  N  1.0000  0.25626  0.52439  0.12880  0.0000
N6  N  1.0000  0.48581  0.74407  0.15614  0.0000
Pd1  Pd  1.0000  0.44274  0.56891  0.13751  0.0000
Ta1  Ta  1.0000  0.61436  0.55397  0.18245  0.0000
