data_CNPdTc
_audit_creation_method           'pos2cif.pl'
_cell_length_a               12.3170003891
_cell_length_b               12.3170003891315
_cell_length_c               20
_cell_angle_alpha            90
_cell_angle_beta             90
_cell_angle_gamma            120.010002136348
_symmetry_space_group_H-M        'P1'
_symmetry_Int_Tables_number      '1'
_symmetry_cell_setting           'triclinic'
loop_
_symmetry_equiv_pos_as_xyz
x,y,z

loop_
_atom_site_label
_atom_site_type_symbol
_atom_site_occupancy
_atom_site_fract_x
_atom_site_fract_y
_atom_site_fract_z
_atom_site_U_iso_or_equiv
C1  C  1.0000  -0.00049  0.20086  0.13902  0.0000
C2  C  1.0000  0.06565  0.13331  0.13717  0.0000
C3  C  1.0000  0.19715  0.19598  0.13240  0.0000
C4  C  1.0000  0.26301  0.12757  0.13325  0.0000
C5  C  1.0000  0.39467  0.19217  0.13328  0.0000
C6  C  1.0000  0.46457  0.12922  0.13777  0.0000
C7  C  1.0000  0.59770  0.20023  0.13989  0.0000
C8  C  1.0000  0.66681  0.13601  0.14304  0.0000
C9  C  1.0000  0.79947  0.20434  0.14321  0.0000
C10  C  1.0000  0.86780  0.13823  0.14369  0.0000
C11  C  1.0000  0.99649  0.40045  0.13999  0.0000
C12  C  1.0000  0.06325  0.33228  0.13659  0.0000
C13  C  1.0000  0.19526  0.39612  0.13122  0.0000
C14  C  1.0000  0.26308  0.32739  0.12957  0.0000
C15  C  1.0000  0.45675  0.32358  0.13401  0.0000
C16  C  1.0000  0.65834  0.33280  0.14267  0.0000
C17  C  1.0000  0.79336  0.40491  0.14554  0.0000
C18  C  1.0000  0.86271  0.33773  0.14271  0.0000
C19  C  1.0000  -0.00141  0.60092  0.14537  0.0000
C20  C  1.0000  0.06518  0.53296  0.14102  0.0000
C21  C  1.0000  0.20056  0.59390  0.13764  0.0000
C22  C  1.0000  0.86336  0.53970  0.14897  0.0000
C23  C  1.0000  0.00371  0.80206  0.14624  0.0000
C24  C  1.0000  0.07009  0.73361  0.14453  0.0000
C25  C  1.0000  0.20421  0.79577  0.14227  0.0000
C26  C  1.0000  0.27362  0.72839  0.14194  0.0000
C27  C  1.0000  0.40991  0.79844  0.14636  0.0000
C28  C  1.0000  0.61250  0.81068  0.15739  0.0000
C29  C  1.0000  0.80679  0.80937  0.15714  0.0000
C30  C  1.0000  0.87214  0.74003  0.15292  0.0000
C31  C  1.0000  0.00281  0.00180  0.14211  0.0000
C32  C  1.0000  0.06826  0.93364  0.14174  0.0000
C33  C  1.0000  0.20009  0.99589  0.13782  0.0000
C34  C  1.0000  0.26794  0.92924  0.14014  0.0000
C35  C  1.0000  0.40082  0.99640  0.14056  0.0000
C36  C  1.0000  0.47008  0.93194  0.14523  0.0000
C37  C  1.0000  0.60308  0.00313  0.14650  0.0000
C38  C  1.0000  0.67394  0.94141  0.15174  0.0000
C39  C  1.0000  0.80549  0.00716  0.14904  0.0000
C40  C  1.0000  0.87188  0.93967  0.14936  0.0000
N1  N  1.0000  0.58433  0.38870  0.14539  0.0000
N2  N  1.0000  0.80374  0.61069  0.15524  0.0000
N3  N  1.0000  0.67825  0.74728  0.16619  0.0000
N4  N  1.0000  0.39308  0.38832  0.12891  0.0000
N5  N  1.0000  0.25790  0.52400  0.12928  0.0000
N6  N  1.0000  0.48498  0.74403  0.15136  0.0000
Pd1  Pd  1.0000  0.44272  0.56991  0.13252  0.0000
Tc1  Tc  1.0000  0.62136  0.55890  0.17197  0.0000
