data_CNPdTi
_audit_creation_method           'pos2cif.pl'
_cell_length_a               12.3170003891
_cell_length_b               12.3170003891315
_cell_length_c               20
_cell_angle_alpha            90
_cell_angle_beta             90
_cell_angle_gamma            120.010002136348
_symmetry_space_group_H-M        'P1'
_symmetry_Int_Tables_number      '1'
_symmetry_cell_setting           'triclinic'
loop_
_symmetry_equiv_pos_as_xyz
x,y,z

loop_
_atom_site_label
_atom_site_type_symbol
_atom_site_occupancy
_atom_site_fract_x
_atom_site_fract_y
_atom_site_fract_z
_atom_site_U_iso_or_equiv
C1  C  1.0000  -0.00030  0.20077  0.13964  0.0000
C2  C  1.0000  0.06580  0.13334  0.13827  0.0000
C3  C  1.0000  0.19753  0.19656  0.13393  0.0000
C4  C  1.0000  0.26349  0.12807  0.13479  0.0000
C5  C  1.0000  0.39526  0.19273  0.13497  0.0000
C6  C  1.0000  0.46483  0.12961  0.13879  0.0000
C7  C  1.0000  0.59826  0.20120  0.14045  0.0000
C8  C  1.0000  0.66706  0.13637  0.14369  0.0000
C9  C  1.0000  0.79952  0.20409  0.14353  0.0000
C10  C  1.0000  0.86788  0.13782  0.14423  0.0000
C11  C  1.0000  0.99650  0.40039  0.14008  0.0000
C12  C  1.0000  0.06347  0.33217  0.13718  0.0000
C13  C  1.0000  0.19549  0.39670  0.13291  0.0000
C14  C  1.0000  0.26314  0.32762  0.13115  0.0000
C15  C  1.0000  0.45786  0.32451  0.13385  0.0000
C16  C  1.0000  0.65901  0.33369  0.14143  0.0000
C17  C  1.0000  0.79389  0.40499  0.14429  0.0000
C18  C  1.0000  0.86286  0.33738  0.14244  0.0000
C19  C  1.0000  -0.00214  0.60073  0.14461  0.0000
C20  C  1.0000  0.06448  0.53276  0.14076  0.0000
C21  C  1.0000  0.19983  0.59371  0.13819  0.0000
C22  C  1.0000  0.86307  0.53955  0.14763  0.0000
C23  C  1.0000  0.00310  0.80162  0.14590  0.0000
C24  C  1.0000  0.06995  0.73373  0.14421  0.0000
C25  C  1.0000  0.20391  0.79584  0.14221  0.0000
C26  C  1.0000  0.27332  0.72844  0.14171  0.0000
C27  C  1.0000  0.40979  0.79843  0.14522  0.0000
C28  C  1.0000  0.61231  0.81078  0.15542  0.0000
C29  C  1.0000  0.80686  0.80853  0.15543  0.0000
C30  C  1.0000  0.87100  0.73874  0.15159  0.0000
C31  C  1.0000  0.00299  0.00175  0.14272  0.0000
C32  C  1.0000  0.06813  0.93342  0.14209  0.0000
C33  C  1.0000  0.20026  0.99621  0.13862  0.0000
C34  C  1.0000  0.26806  0.92960  0.14051  0.0000
C35  C  1.0000  0.40091  0.99679  0.14102  0.0000
C36  C  1.0000  0.47018  0.93192  0.14494  0.0000
C37  C  1.0000  0.60307  0.00333  0.14676  0.0000
C38  C  1.0000  0.67390  0.94138  0.15178  0.0000
C39  C  1.0000  0.80576  0.00699  0.14948  0.0000
C40  C  1.0000  0.87191  0.93918  0.14938  0.0000
N1  N  1.0000  0.58665  0.39226  0.14152  0.0000
N2  N  1.0000  0.80081  0.60854  0.15374  0.0000
N3  N  1.0000  0.67743  0.74567  0.16291  0.0000
N4  N  1.0000  0.39369  0.38792  0.12862  0.0000
N5  N  1.0000  0.25751  0.52445  0.13223  0.0000
N6  N  1.0000  0.48559  0.74405  0.14881  0.0000
Pd1  Pd  1.0000  0.44612  0.56804  0.13319  0.0000
Ti1  Ti  1.0000  0.61701  0.55878  0.17510  0.0000
