data_CNPdV
_audit_creation_method           'pos2cif.pl'
_cell_length_a               12.3170003891
_cell_length_b               12.3170003891315
_cell_length_c               20
_cell_angle_alpha            90
_cell_angle_beta             90
_cell_angle_gamma            120.010002136348
_symmetry_space_group_H-M        'P1'
_symmetry_Int_Tables_number      '1'
_symmetry_cell_setting           'triclinic'
loop_
_symmetry_equiv_pos_as_xyz
x,y,z

loop_
_atom_site_label
_atom_site_type_symbol
_atom_site_occupancy
_atom_site_fract_x
_atom_site_fract_y
_atom_site_fract_z
_atom_site_U_iso_or_equiv
C1  C  1.0000  0.99892  0.20028  0.13753  0.0000
C2  C  1.0000  0.06517  0.13283  0.13549  0.0000
C3  C  1.0000  0.19709  0.19619  0.13141  0.0000
C4  C  1.0000  0.26354  0.12823  0.13265  0.0000
C5  C  1.0000  0.39530  0.19335  0.13383  0.0000
C6  C  1.0000  0.46476  0.13013  0.13835  0.0000
C7  C  1.0000  0.59800  0.20159  0.14104  0.0000
C8  C  1.0000  0.66664  0.13650  0.14390  0.0000
C9  C  1.0000  0.79917  0.20408  0.14322  0.0000
C10  C  1.0000  0.86727  0.13751  0.14268  0.0000
C11  C  1.0000  0.99609  0.40018  0.14007  0.0000
C12  C  1.0000  0.06261  0.33181  0.13592  0.0000
C13  C  1.0000  0.19477  0.39642  0.13179  0.0000
C14  C  1.0000  0.26296  0.32747  0.12953  0.0000
C15  C  1.0000  0.45769  0.32550  0.13411  0.0000
C16  C  1.0000  0.65856  0.33460  0.14307  0.0000
C17  C  1.0000  0.79350  0.40508  0.14599  0.0000
C18  C  1.0000  0.86228  0.33743  0.14294  0.0000
C19  C  1.0000  -0.00137  0.60089  0.14570  0.0000
C20  C  1.0000  0.06462  0.53260  0.14143  0.0000
C21  C  1.0000  0.19982  0.59333  0.13887  0.0000
C22  C  1.0000  0.86374  0.54011  0.14973  0.0000
C23  C  1.0000  0.00372  0.80184  0.14513  0.0000
C24  C  1.0000  0.07027  0.73366  0.14427  0.0000
C25  C  1.0000  0.20457  0.79596  0.14202  0.0000
C26  C  1.0000  0.27362  0.72847  0.14263  0.0000
C27  C  1.0000  0.41000  0.79849  0.14690  0.0000
C28  C  1.0000  0.61213  0.80982  0.15678  0.0000
C29  C  1.0000  0.80623  0.80802  0.15554  0.0000
C30  C  1.0000  0.87194  0.73882  0.15244  0.0000
C31  C  1.0000  0.00256  0.00126  0.14018  0.0000
C32  C  1.0000  0.06837  0.93350  0.13985  0.0000
C33  C  1.0000  0.20039  0.99623  0.13648  0.0000
C34  C  1.0000  0.26822  0.92965  0.13946  0.0000
C35  C  1.0000  0.40104  0.99701  0.14063  0.0000
C36  C  1.0000  0.47002  0.93208  0.14560  0.0000
C37  C  1.0000  0.60299  0.00326  0.14713  0.0000
C38  C  1.0000  0.67363  0.94097  0.15164  0.0000
C39  C  1.0000  0.80515  0.00641  0.14798  0.0000
C40  C  1.0000  0.87134  0.93845  0.14770  0.0000
N1  N  1.0000  0.58611  0.39315  0.14340  0.0000
N2  N  1.0000  0.80383  0.60979  0.15686  0.0000
N3  N  1.0000  0.67748  0.74510  0.16432  0.0000
N4  N  1.0000  0.39300  0.38842  0.12914  0.0000
N5  N  1.0000  0.25689  0.52374  0.13247  0.0000
N6  N  1.0000  0.48510  0.74373  0.15203  0.0000
Pd1  Pd  1.0000  0.44490  0.56799  0.13623  0.0000
V1  V  1.0000  0.62240  0.55923  0.17586  0.0000
