data_CNPdW
_audit_creation_method           'pos2cif.pl'
_cell_length_a               12.3170003891
_cell_length_b               12.3170003891315
_cell_length_c               20
_cell_angle_alpha            90
_cell_angle_beta             90
_cell_angle_gamma            120.010002136348
_symmetry_space_group_H-M        'P1'
_symmetry_Int_Tables_number      '1'
_symmetry_cell_setting           'triclinic'
loop_
_symmetry_equiv_pos_as_xyz
x,y,z

loop_
_atom_site_label
_atom_site_type_symbol
_atom_site_occupancy
_atom_site_fract_x
_atom_site_fract_y
_atom_site_fract_z
_atom_site_U_iso_or_equiv
C1  C  1.0000  -0.00112  0.20045  0.13355  0.0000
C2  C  1.0000  0.06488  0.13279  0.13116  0.0000
C3  C  1.0000  0.19664  0.19560  0.12766  0.0000
C4  C  1.0000  0.26303  0.12755  0.12933  0.0000
C5  C  1.0000  0.39463  0.19234  0.13231  0.0000
C6  C  1.0000  0.46425  0.12923  0.13790  0.0000
C7  C  1.0000  0.59762  0.20127  0.14107  0.0000
C8  C  1.0000  0.66660  0.13631  0.14290  0.0000
C9  C  1.0000  0.79906  0.20433  0.14139  0.0000
C10  C  1.0000  0.86733  0.13782  0.13999  0.0000
C11  C  1.0000  0.99604  0.40039  0.13810  0.0000
C12  C  1.0000  0.06269  0.33205  0.13269  0.0000
C13  C  1.0000  0.19477  0.39633  0.12960  0.0000
C14  C  1.0000  0.26213  0.32682  0.12743  0.0000
C15  C  1.0000  0.45587  0.32381  0.13579  0.0000
C16  C  1.0000  0.65802  0.33358  0.14526  0.0000
C17  C  1.0000  0.79317  0.40518  0.14670  0.0000
C18  C  1.0000  0.86225  0.33765  0.14158  0.0000
C19  C  1.0000  -0.00190  0.60068  0.14574  0.0000
C20  C  1.0000  0.06472  0.53261  0.14060  0.0000
C21  C  1.0000  0.20031  0.59355  0.13862  0.0000
C22  C  1.0000  0.86365  0.53963  0.15058  0.0000
C23  C  1.0000  0.00388  0.80218  0.14428  0.0000
C24  C  1.0000  0.07030  0.73367  0.14394  0.0000
C25  C  1.0000  0.20423  0.79550  0.14169  0.0000
C26  C  1.0000  0.27376  0.72801  0.14317  0.0000
C27  C  1.0000  0.41013  0.79786  0.14821  0.0000
C28  C  1.0000  0.61268  0.81111  0.16055  0.0000
C29  C  1.0000  0.80863  0.81057  0.15790  0.0000
C30  C  1.0000  0.87303  0.74108  0.15348  0.0000
C31  C  1.0000  0.00242  0.00146  0.13686  0.0000
C32  C  1.0000  0.06815  0.93343  0.13718  0.0000
C33  C  1.0000  0.20007  0.99563  0.13366  0.0000
C34  C  1.0000  0.26799  0.92912  0.13819  0.0000
C35  C  1.0000  0.40085  0.99641  0.14004  0.0000
C36  C  1.0000  0.47012  0.93149  0.14597  0.0000
C37  C  1.0000  0.60295  0.00312  0.14698  0.0000
C38  C  1.0000  0.67399  0.94128  0.15256  0.0000
C39  C  1.0000  0.80562  0.00723  0.14711  0.0000
C40  C  1.0000  0.87208  0.93983  0.14676  0.0000
N1  N  1.0000  0.58293  0.39022  0.15118  0.0000
N2  N  1.0000  0.80388  0.61128  0.15953  0.0000
N3  N  1.0000  0.68065  0.74856  0.17190  0.0000
N4  N  1.0000  0.39201  0.38723  0.12989  0.0000
N5  N  1.0000  0.25803  0.52403  0.13190  0.0000
N6  N  1.0000  0.48583  0.74333  0.15501  0.0000
Pd1  Pd  1.0000  0.44402  0.56617  0.13855  0.0000
W1  W  1.0000  0.62417  0.56140  0.18549  0.0000
