data_CNPdY
_audit_creation_method           'pos2cif.pl'
_cell_length_a               12.3170003891
_cell_length_b               12.3170003891315
_cell_length_c               20
_cell_angle_alpha            90
_cell_angle_beta             90
_cell_angle_gamma            120.010002136348
_symmetry_space_group_H-M        'P1'
_symmetry_Int_Tables_number      '1'
_symmetry_cell_setting           'triclinic'
loop_
_symmetry_equiv_pos_as_xyz
x,y,z

loop_
_atom_site_label
_atom_site_type_symbol
_atom_site_occupancy
_atom_site_fract_x
_atom_site_fract_y
_atom_site_fract_z
_atom_site_U_iso_or_equiv
C1  C  1.0000  -0.00121  0.20010  0.13173  0.0000
C2  C  1.0000  0.06500  0.13250  0.12979  0.0000
C3  C  1.0000  0.19707  0.19612  0.12506  0.0000
C4  C  1.0000  0.26345  0.12789  0.12807  0.0000
C5  C  1.0000  0.39536  0.19294  0.12937  0.0000
C6  C  1.0000  0.46482  0.12985  0.13575  0.0000
C7  C  1.0000  0.59789  0.20119  0.13897  0.0000
C8  C  1.0000  0.66660  0.13655  0.14220  0.0000
C9  C  1.0000  0.79928  0.20401  0.14015  0.0000
C10  C  1.0000  0.86738  0.13743  0.13907  0.0000
C11  C  1.0000  -0.00392  0.40009  0.13531  0.0000
C12  C  1.0000  0.06256  0.33182  0.12924  0.0000
C13  C  1.0000  0.19491  0.39729  0.12455  0.0000
C14  C  1.0000  0.26335  0.32778  0.12374  0.0000
C15  C  1.0000  0.45838  0.32525  0.13134  0.0000
C16  C  1.0000  0.65829  0.33447  0.14190  0.0000
C17  C  1.0000  0.79378  0.40492  0.14516  0.0000
C18  C  1.0000  0.86243  0.33728  0.13976  0.0000
C19  C  1.0000  -0.00043  0.60075  0.14502  0.0000
C20  C  1.0000  0.06481  0.53262  0.13836  0.0000
C21  C  1.0000  0.19963  0.59328  0.13574  0.0000
C22  C  1.0000  0.86529  0.53997  0.15071  0.0000
C23  C  1.0000  0.00363  0.80187  0.14635  0.0000
C24  C  1.0000  0.07041  0.73370  0.14478  0.0000
C25  C  1.0000  0.20476  0.79611  0.14255  0.0000
C26  C  1.0000  0.27377  0.72844  0.14354  0.0000
C27  C  1.0000  0.40980  0.79838  0.15116  0.0000
C28  C  1.0000  0.61233  0.81245  0.16361  0.0000
C29  C  1.0000  0.80651  0.80897  0.16041  0.0000
C30  C  1.0000  0.87181  0.73802  0.15633  0.0000
C31  C  1.0000  0.00229  0.00113  0.13760  0.0000
C32  C  1.0000  0.06811  0.93320  0.13878  0.0000
C33  C  1.0000  0.20021  0.99608  0.13434  0.0000
C34  C  1.0000  0.26822  0.92972  0.13914  0.0000
C35  C  1.0000  0.40099  0.99681  0.14000  0.0000
C36  C  1.0000  0.46982  0.93213  0.14726  0.0000
C37  C  1.0000  0.60289  0.00379  0.14760  0.0000
C38  C  1.0000  0.67384  0.94232  0.15336  0.0000
C39  C  1.0000  0.80527  0.00663  0.14718  0.0000
C40  C  1.0000  0.87176  0.93881  0.14797  0.0000
N1  N  1.0000  0.58575  0.39221  0.14224  0.0000
N2  N  1.0000  0.80677  0.60887  0.16193  0.0000
N3  N  1.0000  0.67951  0.75114  0.17366  0.0000
N4  N  1.0000  0.39342  0.38850  0.12859  0.0000
N5  N  1.0000  0.25656  0.52490  0.12583  0.0000
N6  N  1.0000  0.48485  0.74434  0.16119  0.0000
Pd1  Pd  1.0000  0.44288  0.56503  0.14684  0.0000
Y1  Y  1.0000  0.61617  0.55350  0.20871  0.0000
