data_CNPdZn
_audit_creation_method           'pos2cif.pl'
_cell_length_a               12.3170003891
_cell_length_b               12.3170003891315
_cell_length_c               20
_cell_angle_alpha            90
_cell_angle_beta             90
_cell_angle_gamma            120.010002136348
_symmetry_space_group_H-M        'P1'
_symmetry_Int_Tables_number      '1'
_symmetry_cell_setting           'triclinic'
loop_
_symmetry_equiv_pos_as_xyz
x,y,z

loop_
_atom_site_label
_atom_site_type_symbol
_atom_site_occupancy
_atom_site_fract_x
_atom_site_fract_y
_atom_site_fract_z
_atom_site_U_iso_or_equiv
C1  C  1.0000  0.99844  0.19981  0.14209  0.0000
C2  C  1.0000  0.06471  0.13246  0.14177  0.0000
C3  C  1.0000  0.19642  0.19556  0.14194  0.0000
C4  C  1.0000  0.26287  0.12795  0.14204  0.0000
C5  C  1.0000  0.39413  0.19295  0.14249  0.0000
C6  C  1.0000  0.46448  0.13047  0.14277  0.0000
C7  C  1.0000  0.59753  0.20137  0.14315  0.0000
C8  C  1.0000  0.66643  0.13675  0.14294  0.0000
C9  C  1.0000  0.79901  0.20402  0.14275  0.0000
C10  C  1.0000  0.86677  0.13725  0.14223  0.0000
C11  C  1.0000  0.99609  0.39986  0.14291  0.0000
C12  C  1.0000  0.06215  0.33119  0.14246  0.0000
C13  C  1.0000  0.19408  0.39492  0.14252  0.0000
C14  C  1.0000  0.26207  0.32659  0.14263  0.0000
C15  C  1.0000  0.45598  0.32430  0.14345  0.0000
C16  C  1.0000  0.65792  0.33472  0.14374  0.0000
C17  C  1.0000  0.79356  0.40509  0.14373  0.0000
C18  C  1.0000  0.86224  0.33731  0.14313  0.0000
C19  C  1.0000  0.00092  0.60104  0.14327  0.0000
C20  C  1.0000  0.06598  0.53249  0.14315  0.0000
C21  C  1.0000  0.20094  0.59334  0.14321  0.0000
C22  C  1.0000  0.86635  0.54024  0.14384  0.0000
C23  C  1.0000  0.00500  0.80257  0.14251  0.0000
C24  C  1.0000  0.07100  0.73393  0.14292  0.0000
C25  C  1.0000  0.20486  0.79635  0.14303  0.0000
C26  C  1.0000  0.27361  0.72885  0.14358  0.0000
C27  C  1.0000  0.40930  0.79962  0.14416  0.0000
C28  C  1.0000  0.61069  0.81012  0.14403  0.0000
C29  C  1.0000  0.80467  0.80636  0.14303  0.0000
C30  C  1.0000  0.87310  0.73874  0.14316  0.0000
C31  C  1.0000  0.00208  0.00086  0.14185  0.0000
C32  C  1.0000  0.06867  0.93383  0.14201  0.0000
C33  C  1.0000  0.20035  0.99638  0.14211  0.0000
C34  C  1.0000  0.26814  0.92990  0.14265  0.0000
C35  C  1.0000  0.40077  0.99752  0.14285  0.0000
C36  C  1.0000  0.46977  0.93300  0.14336  0.0000
C37  C  1.0000  0.60260  0.00371  0.14304  0.0000
C38  C  1.0000  0.67294  0.94109  0.14286  0.0000
C39  C  1.0000  0.80432  0.00579  0.14223  0.0000
C40  C  1.0000  0.87037  0.93769  0.14223  0.0000
N1  N  1.0000  0.58345  0.38992  0.14427  0.0000
N2  N  1.0000  0.80930  0.61098  0.14437  0.0000
N3  N  1.0000  0.67519  0.74487  0.14387  0.0000
N4  N  1.0000  0.39136  0.38801  0.14401  0.0000
N5  N  1.0000  0.25691  0.52236  0.14266  0.0000
N6  N  1.0000  0.48394  0.74533  0.14542  0.0000
Pd1  Pd  1.0000  0.44064  0.56842  0.14602  0.0000
Zn1  Zn  1.0000  0.63494  0.56526  0.14751  0.0000
