data_CNPdZr
_audit_creation_method           'pos2cif.pl'
_cell_length_a               12.3170003891
_cell_length_b               12.3170003891315
_cell_length_c               20
_cell_angle_alpha            90
_cell_angle_beta             90
_cell_angle_gamma            120.010002136348
_symmetry_space_group_H-M        'P1'
_symmetry_Int_Tables_number      '1'
_symmetry_cell_setting           'triclinic'
loop_
_symmetry_equiv_pos_as_xyz
x,y,z

loop_
_atom_site_label
_atom_site_type_symbol
_atom_site_occupancy
_atom_site_fract_x
_atom_site_fract_y
_atom_site_fract_z
_atom_site_U_iso_or_equiv
C1  C  1.0000  -0.00088  0.20025  0.13394  0.0000
C2  C  1.0000  0.06525  0.13281  0.13255  0.0000
C3  C  1.0000  0.19714  0.19623  0.12951  0.0000
C4  C  1.0000  0.26338  0.12795  0.13144  0.0000
C5  C  1.0000  0.39525  0.19294  0.13277  0.0000
C6  C  1.0000  0.46480  0.12980  0.13731  0.0000
C7  C  1.0000  0.59811  0.20133  0.13946  0.0000
C8  C  1.0000  0.66687  0.13638  0.14149  0.0000
C9  C  1.0000  0.79929  0.20387  0.13999  0.0000
C10  C  1.0000  0.86744  0.13733  0.13935  0.0000
C11  C  1.0000  0.99623  0.40013  0.13721  0.0000
C12  C  1.0000  0.06291  0.33181  0.13275  0.0000
C13  C  1.0000  0.19499  0.39647  0.13027  0.0000
C14  C  1.0000  0.26260  0.32738  0.12916  0.0000
C15  C  1.0000  0.45765  0.32475  0.13443  0.0000
C16  C  1.0000  0.65888  0.33396  0.14209  0.0000
C17  C  1.0000  0.79398  0.40490  0.14436  0.0000
C18  C  1.0000  0.86272  0.33716  0.13996  0.0000
C19  C  1.0000  -0.00140  0.60064  0.14502  0.0000
C20  C  1.0000  0.06462  0.53259  0.13994  0.0000
C21  C  1.0000  0.19980  0.59355  0.13855  0.0000
C22  C  1.0000  0.86428  0.53930  0.14910  0.0000
C23  C  1.0000  0.00349  0.80181  0.14574  0.0000
C24  C  1.0000  0.07026  0.73378  0.14481  0.0000
C25  C  1.0000  0.20413  0.79598  0.14288  0.0000
C26  C  1.0000  0.27337  0.72840  0.14367  0.0000
C27  C  1.0000  0.40963  0.79850  0.14847  0.0000
C28  C  1.0000  0.61225  0.81189  0.15854  0.0000
C29  C  1.0000  0.80745  0.80910  0.15674  0.0000
C30  C  1.0000  0.87153  0.73892  0.15332  0.0000
C31  C  1.0000  0.00264  0.00134  0.13849  0.0000
C32  C  1.0000  0.06808  0.93321  0.13953  0.0000
C33  C  1.0000  0.20030  0.99620  0.13606  0.0000
C34  C  1.0000  0.26813  0.92970  0.13982  0.0000
C35  C  1.0000  0.40090  0.99689  0.14031  0.0000
C36  C  1.0000  0.47002  0.93201  0.14553  0.0000
C37  C  1.0000  0.60293  0.00347  0.14563  0.0000
C38  C  1.0000  0.67384  0.94164  0.15062  0.0000
C39  C  1.0000  0.80558  0.00673  0.14602  0.0000
C40  C  1.0000  0.87200  0.93914  0.14682  0.0000
N1  N  1.0000  0.58588  0.39198  0.14375  0.0000
N2  N  1.0000  0.80343  0.60851  0.15831  0.0000
N3  N  1.0000  0.67888  0.74868  0.16812  0.0000
N4  N  1.0000  0.39326  0.38824  0.13154  0.0000
N5  N  1.0000  0.25727  0.52441  0.13200  0.0000
N6  N  1.0000  0.48526  0.74434  0.15534  0.0000
Pd1  Pd  1.0000  0.44335  0.56631  0.14365  0.0000
Zr1  Zr  1.0000  0.61926  0.55845  0.19563  0.0000
