data_CNPt
_audit_creation_method           'pos2cif.pl'
_cell_length_a               12.3170003891
_cell_length_b               12.3170003891315
_cell_length_c               20
_cell_angle_alpha            90
_cell_angle_beta             90
_cell_angle_gamma            120.010002136348
_symmetry_space_group_H-M        'P1'
_symmetry_Int_Tables_number      '1'
_symmetry_cell_setting           'triclinic'
loop_
_symmetry_equiv_pos_as_xyz
x,y,z

loop_
_atom_site_label
_atom_site_type_symbol
_atom_site_occupancy
_atom_site_fract_x
_atom_site_fract_y
_atom_site_fract_z
_atom_site_U_iso_or_equiv
C1  C  1.0000  0.99668  0.19906  0.14127  0.0000
C2  C  1.0000  0.06382  0.13217  0.14040  0.0000
C3  C  1.0000  0.19486  0.19394  0.14090  0.0000
C4  C  1.0000  0.26298  0.12775  0.14114  0.0000
C5  C  1.0000  0.39389  0.19308  0.14235  0.0000
C6  C  1.0000  0.46445  0.13045  0.14300  0.0000
C7  C  1.0000  0.59705  0.20250  0.14366  0.0000
C8  C  1.0000  0.66554  0.13690  0.14346  0.0000
C9  C  1.0000  0.79782  0.20424  0.14302  0.0000
C10  C  1.0000  0.86559  0.13743  0.14189  0.0000
C11  C  1.0000  0.99406  0.39971  0.14351  0.0000
C12  C  1.0000  0.05887  0.33009  0.14245  0.0000
C13  C  1.0000  0.18981  0.39302  0.14294  0.0000
C14  C  1.0000  0.25781  0.32365  0.14241  0.0000
C15  C  1.0000  0.45424  0.32463  0.14349  0.0000
C16  C  1.0000  0.65665  0.33653  0.14421  0.0000
C17  C  1.0000  0.79265  0.40619  0.14430  0.0000
C18  C  1.0000  0.86015  0.33771  0.14362  0.0000
C19  C  1.0000  0.00220  0.60180  0.14410  0.0000
C20  C  1.0000  0.06518  0.53201  0.14413  0.0000
C21  C  1.0000  0.19918  0.59220  0.14427  0.0000
C22  C  1.0000  0.86820  0.54160  0.14434  0.0000
C23  C  1.0000  0.00850  0.80371  0.14232  0.0000
C24  C  1.0000  0.07332  0.73410  0.14331  0.0000
C25  C  1.0000  0.20724  0.79610  0.14334  0.0000
C26  C  1.0000  0.27473  0.72761  0.14425  0.0000
C27  C  1.0000  0.41073  0.79728  0.14441  0.0000
C28  C  1.0000  0.61313  0.80916  0.14425  0.0000
C29  C  1.0000  0.80955  0.81014  0.14300  0.0000
C30  C  1.0000  0.87756  0.74077  0.14320  0.0000
C31  C  1.0000  0.00354  0.00163  0.14046  0.0000
C32  C  1.0000  0.07069  0.93473  0.14094  0.0000
C33  C  1.0000  0.20180  0.99637  0.14118  0.0000
C34  C  1.0000  0.26957  0.92957  0.14246  0.0000
C35  C  1.0000  0.40186  0.99691  0.14307  0.0000
C36  C  1.0000  0.47033  0.93131  0.14383  0.0000
C37  C  1.0000  0.60294  0.00336  0.14359  0.0000
C38  C  1.0000  0.67349  0.94072  0.14326  0.0000
C39  C  1.0000  0.80440  0.00605  0.14201  0.0000
C40  C  1.0000  0.87251  0.93986  0.14152  0.0000
N1  N  1.0000  0.58191  0.39242  0.14459  0.0000
N2  N  1.0000  0.81403  0.61383  0.14436  0.0000
N3  N  1.0000  0.68176  0.74834  0.14447  0.0000
N4  N  1.0000  0.38560  0.38544  0.14375  0.0000
N5  N  1.0000  0.25335  0.51997  0.14408  0.0000
N6  N  1.0000  0.48545  0.74136  0.14501  0.0000
Pt1  Pt  1.0000  0.43341  0.56201  0.14509  0.0000
Pt2  Pt  1.0000  0.63394  0.57173  0.14531  0.0000
