data_CNPtRe
_audit_creation_method           'pos2cif.pl'
_cell_length_a               12.3170003891
_cell_length_b               12.3170003891315
_cell_length_c               20
_cell_angle_alpha            90
_cell_angle_beta             90
_cell_angle_gamma            120.010002136348
_symmetry_space_group_H-M        'P1'
_symmetry_Int_Tables_number      '1'
_symmetry_cell_setting           'triclinic'
loop_
_symmetry_equiv_pos_as_xyz
x,y,z

loop_
_atom_site_label
_atom_site_type_symbol
_atom_site_occupancy
_atom_site_fract_x
_atom_site_fract_y
_atom_site_fract_z
_atom_site_U_iso_or_equiv
C1  C  1.0000  0.99836  0.20022  0.13476  0.0000
C2  C  1.0000  0.06447  0.13253  0.13188  0.0000
C3  C  1.0000  0.19593  0.19470  0.12876  0.0000
C4  C  1.0000  0.26283  0.12733  0.13026  0.0000
C5  C  1.0000  0.39441  0.19259  0.13362  0.0000
C6  C  1.0000  0.46405  0.12927  0.13906  0.0000
C7  C  1.0000  0.59713  0.20110  0.14229  0.0000
C8  C  1.0000  0.66623  0.13633  0.14394  0.0000
C9  C  1.0000  0.79881  0.20454  0.14265  0.0000
C10  C  1.0000  0.86703  0.13816  0.14101  0.0000
C11  C  1.0000  0.99561  0.40027  0.13926  0.0000
C12  C  1.0000  0.06184  0.33163  0.13420  0.0000
C13  C  1.0000  0.19354  0.39459  0.13100  0.0000
C14  C  1.0000  0.26047  0.32547  0.12875  0.0000
C15  C  1.0000  0.45543  0.32391  0.13712  0.0000
C16  C  1.0000  0.65736  0.33368  0.14631  0.0000
C17  C  1.0000  0.79266  0.40538  0.14731  0.0000
C18  C  1.0000  0.86187  0.33789  0.14272  0.0000
C19  C  1.0000  0.99858  0.60086  0.14507  0.0000
C20  C  1.0000  0.06506  0.53264  0.14096  0.0000
C21  C  1.0000  0.20071  0.59336  0.13891  0.0000
C22  C  1.0000  0.86358  0.53995  0.14984  0.0000
C23  C  1.0000  0.00455  0.80234  0.14318  0.0000
C24  C  1.0000  0.07071  0.73359  0.14284  0.0000
C25  C  1.0000  0.20471  0.79542  0.14089  0.0000
C26  C  1.0000  0.27419  0.72768  0.14239  0.0000
C27  C  1.0000  0.41044  0.79757  0.14705  0.0000
C28  C  1.0000  0.61441  0.81151  0.15968  0.0000
C29  C  1.0000  0.80923  0.81120  0.15663  0.0000
C30  C  1.0000  0.87375  0.74154  0.15178  0.0000
C31  C  1.0000  0.00251  0.00141  0.13663  0.0000
C32  C  1.0000  0.06846  0.93354  0.13677  0.0000
C33  C  1.0000  0.20031  0.99557  0.13386  0.0000
C34  C  1.0000  0.26817  0.92889  0.13812  0.0000
C35  C  1.0000  0.40094  0.99620  0.14056  0.0000
C36  C  1.0000  0.47020  0.93128  0.14593  0.0000
C37  C  1.0000  0.60304  0.00323  0.14727  0.0000
C38  C  1.0000  0.67432  0.94161  0.15246  0.0000
C39  C  1.0000  0.80564  0.00749  0.14731  0.0000
C40  C  1.0000  0.87227  0.94024  0.14613  0.0000
N1  N  1.0000  0.58240  0.39005  0.15194  0.0000
N2  N  1.0000  0.80456  0.61225  0.15662  0.0000
N3  N  1.0000  0.68196  0.74956  0.17029  0.0000
N4  N  1.0000  0.39004  0.38686  0.13087  0.0000
N5  N  1.0000  0.25812  0.52264  0.13304  0.0000
N6  N  1.0000  0.48680  0.74304  0.15223  0.0000
Pt1  Pt  1.0000  0.44335  0.56696  0.13819  0.0000
Re1  Re  1.0000  0.62600  0.56305  0.17958  0.0000
