data_CNPtRh
_audit_creation_method           'pos2cif.pl'
_cell_length_a               12.3170003891
_cell_length_b               12.3170003891315
_cell_length_c               20
_cell_angle_alpha            90
_cell_angle_beta             90
_cell_angle_gamma            120.010002136348
_symmetry_space_group_H-M        'P1'
_symmetry_Int_Tables_number      '1'
_symmetry_cell_setting           'triclinic'
loop_
_symmetry_equiv_pos_as_xyz
x,y,z

loop_
_atom_site_label
_atom_site_type_symbol
_atom_site_occupancy
_atom_site_fract_x
_atom_site_fract_y
_atom_site_fract_z
_atom_site_U_iso_or_equiv
C1  C  1.0000  0.99835  0.20015  0.13946  0.0000
C2  C  1.0000  0.06461  0.13241  0.13758  0.0000
C3  C  1.0000  0.19568  0.19437  0.13114  0.0000
C4  C  1.0000  0.26273  0.12713  0.13238  0.0000
C5  C  1.0000  0.39429  0.19282  0.13280  0.0000
C6  C  1.0000  0.46427  0.12983  0.13845  0.0000
C7  C  1.0000  0.59702  0.20153  0.14121  0.0000
C8  C  1.0000  0.66613  0.13684  0.14513  0.0000
C9  C  1.0000  0.79884  0.20473  0.14490  0.0000
C10  C  1.0000  0.86702  0.13833  0.14560  0.0000
C11  C  1.0000  0.99579  0.40036  0.13991  0.0000
C12  C  1.0000  0.06175  0.33144  0.13589  0.0000
C13  C  1.0000  0.19317  0.39406  0.12948  0.0000
C14  C  1.0000  0.26071  0.32514  0.12652  0.0000
C15  C  1.0000  0.45635  0.32493  0.13222  0.0000
C16  C  1.0000  0.65660  0.33507  0.14307  0.0000
C17  C  1.0000  0.79272  0.40579  0.14598  0.0000
C18  C  1.0000  0.86180  0.33825  0.14346  0.0000
C19  C  1.0000  -0.00016  0.60105  0.14490  0.0000
C20  C  1.0000  0.06595  0.53271  0.14037  0.0000
C21  C  1.0000  0.20150  0.59342  0.13683  0.0000
C22  C  1.0000  0.86440  0.54038  0.14912  0.0000
C23  C  1.0000  0.00494  0.80223  0.14760  0.0000
C24  C  1.0000  0.07108  0.73349  0.14456  0.0000
C25  C  1.0000  0.20522  0.79547  0.14166  0.0000
C26  C  1.0000  0.27456  0.72787  0.14060  0.0000
C27  C  1.0000  0.41069  0.79795  0.14492  0.0000
C28  C  1.0000  0.61325  0.80999  0.15799  0.0000
C29  C  1.0000  0.80693  0.80927  0.16002  0.0000
C30  C  1.0000  0.87365  0.73997  0.15582  0.0000
C31  C  1.0000  0.00249  0.00132  0.14388  0.0000
C32  C  1.0000  0.06870  0.93357  0.14268  0.0000
C33  C  1.0000  0.20030  0.99555  0.13762  0.0000
C34  C  1.0000  0.26838  0.92895  0.13991  0.0000
C35  C  1.0000  0.40107  0.99644  0.14110  0.0000
C36  C  1.0000  0.47025  0.93173  0.14594  0.0000
C37  C  1.0000  0.60309  0.00361  0.14855  0.0000
C38  C  1.0000  0.67386  0.94152  0.15440  0.0000
C39  C  1.0000  0.80519  0.00713  0.15201  0.0000
C40  C  1.0000  0.87185  0.93965  0.15231  0.0000
N1  N  1.0000  0.58266  0.39131  0.14351  0.0000
N2  N  1.0000  0.80690  0.61189  0.15789  0.0000
N3  N  1.0000  0.67886  0.74697  0.16710  0.0000
N4  N  1.0000  0.38972  0.38753  0.12398  0.0000
N5  N  1.0000  0.25804  0.52196  0.12882  0.0000
N6  N  1.0000  0.48623  0.74301  0.14734  0.0000
Pt1  Pt  1.0000  0.44182  0.56838  0.12828  0.0000
Rh1  Rh  1.0000  0.62777  0.56365  0.16705  0.0000
