data_CNPtRu
_audit_creation_method           'pos2cif.pl'
_cell_length_a               12.3170003891
_cell_length_b               12.3170003891315
_cell_length_c               20
_cell_angle_alpha            90
_cell_angle_beta             90
_cell_angle_gamma            120.010002136348
_symmetry_space_group_H-M        'P1'
_symmetry_Int_Tables_number      '1'
_symmetry_cell_setting           'triclinic'
loop_
_symmetry_equiv_pos_as_xyz
x,y,z

loop_
_atom_site_label
_atom_site_type_symbol
_atom_site_occupancy
_atom_site_fract_x
_atom_site_fract_y
_atom_site_fract_z
_atom_site_U_iso_or_equiv
C1  C  1.0000  0.99848  0.20033  0.13752  0.0000
C2  C  1.0000  0.06448  0.13239  0.13510  0.0000
C3  C  1.0000  0.19599  0.19456  0.13084  0.0000
C4  C  1.0000  0.26286  0.12726  0.13177  0.0000
C5  C  1.0000  0.39450  0.19288  0.13377  0.0000
C6  C  1.0000  0.46415  0.12956  0.13870  0.0000
C7  C  1.0000  0.59706  0.20150  0.14146  0.0000
C8  C  1.0000  0.66623  0.13675  0.14414  0.0000
C9  C  1.0000  0.79886  0.20483  0.14368  0.0000
C10  C  1.0000  0.86710  0.13840  0.14320  0.0000
C11  C  1.0000  0.99587  0.40049  0.13998  0.0000
C12  C  1.0000  0.06207  0.33179  0.13589  0.0000
C13  C  1.0000  0.19384  0.39451  0.13169  0.0000
C14  C  1.0000  0.26098  0.32540  0.12907  0.0000
C15  C  1.0000  0.45628  0.32471  0.13601  0.0000
C16  C  1.0000  0.65676  0.33464  0.14484  0.0000
C17  C  1.0000  0.79240  0.40556  0.14636  0.0000
C18  C  1.0000  0.86174  0.33833  0.14316  0.0000
C19  C  1.0000  -0.00115  0.60095  0.14430  0.0000
C20  C  1.0000  0.06565  0.53274  0.14073  0.0000
C21  C  1.0000  0.20156  0.59343  0.13841  0.0000
C22  C  1.0000  0.86316  0.54046  0.14839  0.0000
C23  C  1.0000  0.00431  0.80200  0.14398  0.0000
C24  C  1.0000  0.07056  0.73340  0.14266  0.0000
C25  C  1.0000  0.20494  0.79537  0.14065  0.0000
C26  C  1.0000  0.27451  0.72786  0.14147  0.0000
C27  C  1.0000  0.41068  0.79773  0.14580  0.0000
C28  C  1.0000  0.61381  0.81050  0.15864  0.0000
C29  C  1.0000  0.80726  0.80980  0.15711  0.0000
C30  C  1.0000  0.87305  0.74043  0.15205  0.0000
C31  C  1.0000  0.00234  0.00126  0.13970  0.0000
C32  C  1.0000  0.06847  0.93349  0.13899  0.0000
C33  C  1.0000  0.20020  0.99543  0.13549  0.0000
C34  C  1.0000  0.26820  0.92874  0.13855  0.0000
C35  C  1.0000  0.40104  0.99628  0.14052  0.0000
C36  C  1.0000  0.47028  0.93154  0.14557  0.0000
C37  C  1.0000  0.60315  0.00348  0.14750  0.0000
C38  C  1.0000  0.67404  0.94150  0.15305  0.0000
C39  C  1.0000  0.80534  0.00733  0.14919  0.0000
C40  C  1.0000  0.87154  0.93954  0.14826  0.0000
N1  N  1.0000  0.58260  0.39138  0.14947  0.0000
N2  N  1.0000  0.80448  0.61222  0.15504  0.0000
N3  N  1.0000  0.67989  0.74735  0.16878  0.0000
N4  N  1.0000  0.39031  0.38749  0.12889  0.0000
N5  N  1.0000  0.25905  0.52241  0.13270  0.0000
N6  N  1.0000  0.48662  0.74287  0.14944  0.0000
Pt1  Pt  1.0000  0.44365  0.56756  0.13299  0.0000
Ru1  Ru  1.0000  0.62784  0.56272  0.17648  0.0000
