data_CNPtSc
_audit_creation_method           'pos2cif.pl'
_cell_length_a               12.3170003891
_cell_length_b               12.3170003891315
_cell_length_c               20
_cell_angle_alpha            90
_cell_angle_beta             90
_cell_angle_gamma            120.010002136348
_symmetry_space_group_H-M        'P1'
_symmetry_Int_Tables_number      '1'
_symmetry_cell_setting           'triclinic'
loop_
_symmetry_equiv_pos_as_xyz
x,y,z

loop_
_atom_site_label
_atom_site_type_symbol
_atom_site_occupancy
_atom_site_fract_x
_atom_site_fract_y
_atom_site_fract_z
_atom_site_U_iso_or_equiv
C1  C  1.0000  -0.00192  0.19978  0.12887  0.0000
C2  C  1.0000  0.06479  0.13253  0.12590  0.0000
C3  C  1.0000  0.19690  0.19585  0.12659  0.0000
C4  C  1.0000  0.26375  0.12822  0.12944  0.0000
C5  C  1.0000  0.39524  0.19371  0.13511  0.0000
C6  C  1.0000  0.46451  0.12994  0.13956  0.0000
C7  C  1.0000  0.59740  0.20154  0.14324  0.0000
C8  C  1.0000  0.66612  0.13652  0.14226  0.0000
C9  C  1.0000  0.79861  0.20389  0.13907  0.0000
C10  C  1.0000  0.86652  0.13719  0.13459  0.0000
C11  C  1.0000  0.99517  0.39970  0.13687  0.0000
C12  C  1.0000  0.06154  0.33134  0.13072  0.0000
C13  C  1.0000  0.19367  0.39592  0.13099  0.0000
C14  C  1.0000  0.26160  0.32657  0.13169  0.0000
C15  C  1.0000  0.45726  0.32530  0.14281  0.0000
C16  C  1.0000  0.65734  0.33475  0.14853  0.0000
C17  C  1.0000  0.79298  0.40489  0.14766  0.0000
C18  C  1.0000  0.86148  0.33715  0.14074  0.0000
C19  C  1.0000  -0.00074  0.60072  0.14405  0.0000
C20  C  1.0000  0.06428  0.53215  0.14027  0.0000
C21  C  1.0000  0.19909  0.59260  0.14000  0.0000
C22  C  1.0000  0.86484  0.54031  0.14953  0.0000
C23  C  1.0000  0.00417  0.80180  0.13973  0.0000
C24  C  1.0000  0.07071  0.73358  0.14150  0.0000
C25  C  1.0000  0.20506  0.79585  0.14098  0.0000
C26  C  1.0000  0.27380  0.72795  0.14496  0.0000
C27  C  1.0000  0.40985  0.79737  0.15123  0.0000
C28  C  1.0000  0.61415  0.81217  0.15852  0.0000
C29  C  1.0000  0.80753  0.80941  0.15125  0.0000
C30  C  1.0000  0.87245  0.73851  0.14861  0.0000
C31  C  1.0000  0.00243  0.00090  0.13000  0.0000
C32  C  1.0000  0.06848  0.93308  0.13217  0.0000
C33  C  1.0000  0.20073  0.99603  0.13151  0.0000
C34  C  1.0000  0.26839  0.92941  0.13754  0.0000
C35  C  1.0000  0.40100  0.99647  0.14050  0.0000
C36  C  1.0000  0.46978  0.93123  0.14644  0.0000
C37  C  1.0000  0.60268  0.00339  0.14529  0.0000
C38  C  1.0000  0.67369  0.94147  0.14738  0.0000
C39  C  1.0000  0.80476  0.00607  0.13976  0.0000
C40  C  1.0000  0.87171  0.93871  0.13878  0.0000
N1  N  1.0000  0.58425  0.39205  0.15442  0.0000
N2  N  1.0000  0.80638  0.61006  0.15657  0.0000
N3  N  1.0000  0.68179  0.75133  0.16605  0.0000
N4  N  1.0000  0.38996  0.38690  0.14293  0.0000
N5  N  1.0000  0.25584  0.52315  0.13482  0.0000
N6  N  1.0000  0.48601  0.74323  0.16113  0.0000
Pt1  Pt  1.0000  0.44201  0.56282  0.15975  0.0000
Sc1  Sc  1.0000  0.62902  0.56767  0.20162  0.0000
