data_CNPtTa
_audit_creation_method           'pos2cif.pl'
_cell_length_a               12.3170003891
_cell_length_b               12.3170003891315
_cell_length_c               20
_cell_angle_alpha            90
_cell_angle_beta             90
_cell_angle_gamma            120.010002136348
_symmetry_space_group_H-M        'P1'
_symmetry_Int_Tables_number      '1'
_symmetry_cell_setting           'triclinic'
loop_
_symmetry_equiv_pos_as_xyz
x,y,z

loop_
_atom_site_label
_atom_site_type_symbol
_atom_site_occupancy
_atom_site_fract_x
_atom_site_fract_y
_atom_site_fract_z
_atom_site_U_iso_or_equiv
C1  C  1.0000  -0.00184  0.19986  0.12916  0.0000
C2  C  1.0000  0.06440  0.13232  0.12596  0.0000
C3  C  1.0000  0.19624  0.19530  0.12401  0.0000
C4  C  1.0000  0.26326  0.12775  0.12685  0.0000
C5  C  1.0000  0.39494  0.19325  0.13154  0.0000
C6  C  1.0000  0.46432  0.12969  0.13802  0.0000
C7  C  1.0000  0.59774  0.20161  0.14189  0.0000
C8  C  1.0000  0.66653  0.13615  0.14305  0.0000
C9  C  1.0000  0.79874  0.20408  0.14015  0.0000
C10  C  1.0000  0.86687  0.13732  0.13690  0.0000
C11  C  1.0000  0.99541  0.40016  0.13701  0.0000
C12  C  1.0000  0.06151  0.33137  0.12984  0.0000
C13  C  1.0000  0.19314  0.39523  0.12846  0.0000
C14  C  1.0000  0.26036  0.32610  0.12642  0.0000
C15  C  1.0000  0.45566  0.32481  0.13654  0.0000
C16  C  1.0000  0.65824  0.33361  0.14625  0.0000
C17  C  1.0000  0.79337  0.40552  0.14764  0.0000
C18  C  1.0000  0.86200  0.33752  0.14089  0.0000
C19  C  1.0000  -0.00170  0.60071  0.14717  0.0000
C20  C  1.0000  0.06432  0.53240  0.14118  0.0000
C21  C  1.0000  0.19971  0.59332  0.14031  0.0000
C22  C  1.0000  0.86428  0.53987  0.15264  0.0000
C23  C  1.0000  0.00438  0.80226  0.14258  0.0000
C24  C  1.0000  0.07094  0.73396  0.14459  0.0000
C25  C  1.0000  0.20451  0.79570  0.14282  0.0000
C26  C  1.0000  0.27388  0.72765  0.14574  0.0000
C27  C  1.0000  0.41015  0.79782  0.15132  0.0000
C28  C  1.0000  0.61507  0.81217  0.16244  0.0000
C29  C  1.0000  0.81032  0.81117  0.15569  0.0000
C30  C  1.0000  0.87357  0.74122  0.15194  0.0000
C31  C  1.0000  0.00242  0.00102  0.13184  0.0000
C32  C  1.0000  0.06833  0.93315  0.13359  0.0000
C33  C  1.0000  0.20058  0.99580  0.13126  0.0000
C34  C  1.0000  0.26840  0.92939  0.13803  0.0000
C35  C  1.0000  0.40114  0.99675  0.14063  0.0000
C36  C  1.0000  0.47031  0.93134  0.14761  0.0000
C37  C  1.0000  0.60306  0.00302  0.14753  0.0000
C38  C  1.0000  0.67458  0.94130  0.15226  0.0000
C39  C  1.0000  0.80590  0.00706  0.14437  0.0000
C40  C  1.0000  0.87251  0.93974  0.14282  0.0000
N1  N  1.0000  0.58351  0.39130  0.15115  0.0000
N2  N  1.0000  0.80440  0.61167  0.16147  0.0000
N3  N  1.0000  0.68375  0.75008  0.17256  0.0000
N4  N  1.0000  0.39020  0.38756  0.13286  0.0000
N5  N  1.0000  0.25647  0.52286  0.13378  0.0000
N6  N  1.0000  0.48695  0.74355  0.15965  0.0000
Pt1  Pt  1.0000  0.44227  0.56588  0.14964  0.0000
Ta1  Ta  1.0000  0.62194  0.55979  0.19188  0.0000
