data_CNPtTc
_audit_creation_method           'pos2cif.pl'
_cell_length_a               12.3170003891
_cell_length_b               12.3170003891315
_cell_length_c               20
_cell_angle_alpha            90
_cell_angle_beta             90
_cell_angle_gamma            120.010002136348
_symmetry_space_group_H-M        'P1'
_symmetry_Int_Tables_number      '1'
_symmetry_cell_setting           'triclinic'
loop_
_symmetry_equiv_pos_as_xyz
x,y,z

loop_
_atom_site_label
_atom_site_type_symbol
_atom_site_occupancy
_atom_site_fract_x
_atom_site_fract_y
_atom_site_fract_z
_atom_site_U_iso_or_equiv
C1  C  1.0000  -0.00125  0.20027  0.13469  0.0000
C2  C  1.0000  0.06474  0.13244  0.13234  0.0000
C3  C  1.0000  0.19627  0.19480  0.12872  0.0000
C4  C  1.0000  0.26290  0.12725  0.13028  0.0000
C5  C  1.0000  0.39465  0.19278  0.13284  0.0000
C6  C  1.0000  0.46431  0.12945  0.13813  0.0000
C7  C  1.0000  0.59732  0.20083  0.14089  0.0000
C8  C  1.0000  0.66655  0.13638  0.14286  0.0000
C9  C  1.0000  0.79914  0.20449  0.14182  0.0000
C10  C  1.0000  0.86735  0.13814  0.14077  0.0000
C11  C  1.0000  0.99607  0.40028  0.13891  0.0000
C12  C  1.0000  0.06237  0.33175  0.13387  0.0000
C13  C  1.0000  0.19419  0.39461  0.13081  0.0000
C14  C  1.0000  0.26125  0.32587  0.12837  0.0000
C15  C  1.0000  0.45646  0.32430  0.13596  0.0000
C16  C  1.0000  0.65764  0.33345  0.14484  0.0000
C17  C  1.0000  0.79291  0.40513  0.14643  0.0000
C18  C  1.0000  0.86234  0.33790  0.14198  0.0000
C19  C  1.0000  -0.00122  0.60079  0.14560  0.0000
C20  C  1.0000  0.06549  0.53275  0.14125  0.0000
C21  C  1.0000  0.20117  0.59365  0.13953  0.0000
C22  C  1.0000  0.86330  0.53988  0.14968  0.0000
C23  C  1.0000  0.00383  0.80192  0.14460  0.0000
C24  C  1.0000  0.07036  0.73346  0.14399  0.0000
C25  C  1.0000  0.20444  0.79555  0.14198  0.0000
C26  C  1.0000  0.27407  0.72797  0.14332  0.0000
C27  C  1.0000  0.41022  0.79823  0.14773  0.0000
C28  C  1.0000  0.61420  0.81195  0.15980  0.0000
C29  C  1.0000  0.80779  0.81021  0.15758  0.0000
C30  C  1.0000  0.87254  0.74044  0.15279  0.0000
C31  C  1.0000  0.00233  0.00116  0.13791  0.0000
C32  C  1.0000  0.06818  0.93325  0.13829  0.0000
C33  C  1.0000  0.20013  0.99552  0.13470  0.0000
C34  C  1.0000  0.26804  0.92896  0.13884  0.0000
C35  C  1.0000  0.40087  0.99640  0.14041  0.0000
C36  C  1.0000  0.47020  0.93181  0.14585  0.0000
C37  C  1.0000  0.60316  0.00350  0.14673  0.0000
C38  C  1.0000  0.67434  0.94203  0.15226  0.0000
C39  C  1.0000  0.80563  0.00742  0.14745  0.0000
C40  C  1.0000  0.87189  0.93973  0.14717  0.0000
N1  N  1.0000  0.58322  0.38942  0.14979  0.0000
N2  N  1.0000  0.80394  0.61122  0.15654  0.0000
N3  N  1.0000  0.68028  0.74928  0.16995  0.0000
N4  N  1.0000  0.39121  0.38794  0.13026  0.0000
N5  N  1.0000  0.25881  0.52290  0.13313  0.0000
N6  N  1.0000  0.48629  0.74388  0.15307  0.0000
Pt1  Pt  1.0000  0.44348  0.56874  0.13834  0.0000
Tc1  Tc  1.0000  0.62364  0.56103  0.17886  0.0000
