data_CNPtTi
_audit_creation_method           'pos2cif.pl'
_cell_length_a               12.3170003891
_cell_length_b               12.3170003891315
_cell_length_c               20
_cell_angle_alpha            90
_cell_angle_beta             90
_cell_angle_gamma            120.010002136348
_symmetry_space_group_H-M        'P1'
_symmetry_Int_Tables_number      '1'
_symmetry_cell_setting           'triclinic'
loop_
_symmetry_equiv_pos_as_xyz
x,y,z

loop_
_atom_site_label
_atom_site_type_symbol
_atom_site_occupancy
_atom_site_fract_x
_atom_site_fract_y
_atom_site_fract_z
_atom_site_U_iso_or_equiv
C1  C  1.0000  -0.00136  0.20006  0.13413  0.0000
C2  C  1.0000  0.06474  0.13247  0.13193  0.0000
C3  C  1.0000  0.19643  0.19531  0.12899  0.0000
C4  C  1.0000  0.26327  0.12772  0.13093  0.0000
C5  C  1.0000  0.39506  0.19318  0.13383  0.0000
C6  C  1.0000  0.46449  0.12973  0.13897  0.0000
C7  C  1.0000  0.59775  0.20183  0.14179  0.0000
C8  C  1.0000  0.66661  0.13662  0.14360  0.0000
C9  C  1.0000  0.79896  0.20420  0.14191  0.0000
C10  C  1.0000  0.86720  0.13761  0.14043  0.0000
C11  C  1.0000  0.99570  0.40011  0.13858  0.0000
C12  C  1.0000  0.06209  0.33147  0.13353  0.0000
C13  C  1.0000  0.19382  0.39514  0.13140  0.0000
C14  C  1.0000  0.26095  0.32602  0.12929  0.0000
C15  C  1.0000  0.45713  0.32506  0.13622  0.0000
C16  C  1.0000  0.65799  0.33451  0.14459  0.0000
C17  C  1.0000  0.79329  0.40534  0.14599  0.0000
C18  C  1.0000  0.86216  0.33753  0.14173  0.0000
C19  C  1.0000  -0.00176  0.60065  0.14525  0.0000
C20  C  1.0000  0.06452  0.53244  0.14099  0.0000
C21  C  1.0000  0.19993  0.59325  0.13974  0.0000
C22  C  1.0000  0.86357  0.53995  0.14914  0.0000
C23  C  1.0000  0.00383  0.80183  0.14421  0.0000
C24  C  1.0000  0.07053  0.73368  0.14397  0.0000
C25  C  1.0000  0.20438  0.79563  0.14220  0.0000
C26  C  1.0000  0.27378  0.72779  0.14351  0.0000
C27  C  1.0000  0.41006  0.79766  0.14757  0.0000
C28  C  1.0000  0.61429  0.81192  0.15813  0.0000
C29  C  1.0000  0.80851  0.80973  0.15555  0.0000
C30  C  1.0000  0.87216  0.73946  0.15152  0.0000
C31  C  1.0000  0.00267  0.00124  0.13733  0.0000
C32  C  1.0000  0.06831  0.93323  0.13797  0.0000
C33  C  1.0000  0.20045  0.99588  0.13490  0.0000
C34  C  1.0000  0.26827  0.92930  0.13914  0.0000
C35  C  1.0000  0.40101  0.99661  0.14090  0.0000
C36  C  1.0000  0.47023  0.93136  0.14597  0.0000
C37  C  1.0000  0.60304  0.00346  0.14701  0.0000
C38  C  1.0000  0.67431  0.94175  0.15176  0.0000
C39  C  1.0000  0.80588  0.00715  0.14685  0.0000
C40  C  1.0000  0.87223  0.93944  0.14621  0.0000
N1  N  1.0000  0.58484  0.39298  0.14736  0.0000
N2  N  1.0000  0.80242  0.60960  0.15580  0.0000
N3  N  1.0000  0.68030  0.74811  0.16690  0.0000
N4  N  1.0000  0.39123  0.38741  0.13166  0.0000
N5  N  1.0000  0.25726  0.52307  0.13456  0.0000
N6  N  1.0000  0.48683  0.74324  0.15268  0.0000
Pt1  Pt  1.0000  0.44581  0.56614  0.14227  0.0000
Ti1  Ti  1.0000  0.62189  0.56329  0.18304  0.0000
