data_CNPtV
_audit_creation_method           'pos2cif.pl'
_cell_length_a               12.3170003891
_cell_length_b               12.3170003891315
_cell_length_c               20
_cell_angle_alpha            90
_cell_angle_beta             90
_cell_angle_gamma            120.010002136348
_symmetry_space_group_H-M        'P1'
_symmetry_Int_Tables_number      '1'
_symmetry_cell_setting           'triclinic'
loop_
_symmetry_equiv_pos_as_xyz
x,y,z

loop_
_atom_site_label
_atom_site_type_symbol
_atom_site_occupancy
_atom_site_fract_x
_atom_site_fract_y
_atom_site_fract_z
_atom_site_U_iso_or_equiv
C1  C  1.0000  0.99847  0.19999  0.13367  0.0000
C2  C  1.0000  0.06490  0.13260  0.13139  0.0000
C3  C  1.0000  0.19670  0.19553  0.12947  0.0000
C4  C  1.0000  0.26356  0.12806  0.13136  0.0000
C5  C  1.0000  0.39528  0.19367  0.13453  0.0000
C6  C  1.0000  0.46457  0.13003  0.13931  0.0000
C7  C  1.0000  0.59772  0.20156  0.14219  0.0000
C8  C  1.0000  0.66647  0.13640  0.14328  0.0000
C9  C  1.0000  0.79892  0.20420  0.14136  0.0000
C10  C  1.0000  0.86700  0.13757  0.13913  0.0000
C11  C  1.0000  0.99557  0.40004  0.13916  0.0000
C12  C  1.0000  0.06170  0.33137  0.13398  0.0000
C13  C  1.0000  0.19349  0.39506  0.13236  0.0000
C14  C  1.0000  0.26133  0.32642  0.13057  0.0000
C15  C  1.0000  0.45720  0.32569  0.13758  0.0000
C16  C  1.0000  0.65812  0.33437  0.14548  0.0000
C17  C  1.0000  0.79322  0.40537  0.14669  0.0000
C18  C  1.0000  0.86195  0.33762  0.14198  0.0000
C19  C  1.0000  -0.00154  0.60082  0.14594  0.0000
C20  C  1.0000  0.06441  0.53242  0.14192  0.0000
C21  C  1.0000  0.19958  0.59301  0.14092  0.0000
C22  C  1.0000  0.86357  0.54041  0.15004  0.0000
C23  C  1.0000  0.00424  0.80201  0.14332  0.0000
C24  C  1.0000  0.07059  0.73364  0.14409  0.0000
C25  C  1.0000  0.20470  0.79573  0.14263  0.0000
C26  C  1.0000  0.27375  0.72787  0.14462  0.0000
C27  C  1.0000  0.41010  0.79795  0.14874  0.0000
C28  C  1.0000  0.61465  0.81113  0.15707  0.0000
C29  C  1.0000  0.80782  0.80921  0.15336  0.0000
C30  C  1.0000  0.87274  0.73961  0.15077  0.0000
C31  C  1.0000  0.00270  0.00118  0.13579  0.0000
C32  C  1.0000  0.06862  0.93344  0.13685  0.0000
C33  C  1.0000  0.20068  0.99606  0.13470  0.0000
C34  C  1.0000  0.26837  0.92938  0.13934  0.0000
C35  C  1.0000  0.40112  0.99677  0.14121  0.0000
C36  C  1.0000  0.47016  0.93160  0.14632  0.0000
C37  C  1.0000  0.60311  0.00323  0.14651  0.0000
C38  C  1.0000  0.67427  0.94132  0.14997  0.0000
C39  C  1.0000  0.80550  0.00670  0.14446  0.0000
C40  C  1.0000  0.87186  0.93900  0.14370  0.0000
N1  N  1.0000  0.58542  0.39286  0.14848  0.0000
N2  N  1.0000  0.80393  0.61080  0.15662  0.0000
N3  N  1.0000  0.68022  0.74703  0.16433  0.0000
N4  N  1.0000  0.39124  0.38827  0.13414  0.0000
N5  N  1.0000  0.25624  0.52246  0.13581  0.0000
N6  N  1.0000  0.48649  0.74368  0.15436  0.0000
Pt1  Pt  1.0000  0.44414  0.56760  0.14520  0.0000
V1  V  1.0000  0.62217  0.56047  0.17722  0.0000
