data_CNPtW
_audit_creation_method           'pos2cif.pl'
_cell_length_a               12.3170003891
_cell_length_b               12.3170003891315
_cell_length_c               20
_cell_angle_alpha            90
_cell_angle_beta             90
_cell_angle_gamma            120.010002136348
_symmetry_space_group_H-M        'P1'
_symmetry_Int_Tables_number      '1'
_symmetry_cell_setting           'triclinic'
loop_
_symmetry_equiv_pos_as_xyz
x,y,z

loop_
_atom_site_label
_atom_site_type_symbol
_atom_site_occupancy
_atom_site_fract_x
_atom_site_fract_y
_atom_site_fract_z
_atom_site_U_iso_or_equiv
C1  C  1.0000  -0.00191  0.19982  0.13115  0.0000
C2  C  1.0000  0.06418  0.13208  0.12857  0.0000
C3  C  1.0000  0.19587  0.19466  0.12537  0.0000
C4  C  1.0000  0.26301  0.12744  0.12801  0.0000
C5  C  1.0000  0.39466  0.19310  0.13211  0.0000
C6  C  1.0000  0.46417  0.12967  0.13841  0.0000
C7  C  1.0000  0.59746  0.20191  0.14176  0.0000
C8  C  1.0000  0.66636  0.13655  0.14326  0.0000
C9  C  1.0000  0.79870  0.20431  0.14088  0.0000
C10  C  1.0000  0.86686  0.13752  0.13877  0.0000
C11  C  1.0000  0.99548  0.40017  0.13697  0.0000
C12  C  1.0000  0.06162  0.33139  0.13062  0.0000
C13  C  1.0000  0.19330  0.39489  0.12826  0.0000
C14  C  1.0000  0.26026  0.32550  0.12589  0.0000
C15  C  1.0000  0.45556  0.32473  0.13626  0.0000
C16  C  1.0000  0.65766  0.33439  0.14602  0.0000
C17  C  1.0000  0.79293  0.40547  0.14691  0.0000
C18  C  1.0000  0.86183  0.33770  0.14099  0.0000
C19  C  1.0000  -0.00151  0.60062  0.14584  0.0000
C20  C  1.0000  0.06481  0.53237  0.14023  0.0000
C21  C  1.0000  0.20035  0.59327  0.13895  0.0000
C22  C  1.0000  0.86402  0.53996  0.15089  0.0000
C23  C  1.0000  0.00448  0.80228  0.14420  0.0000
C24  C  1.0000  0.07083  0.73368  0.14422  0.0000
C25  C  1.0000  0.20467  0.79549  0.14215  0.0000
C26  C  1.0000  0.27411  0.72757  0.14389  0.0000
C27  C  1.0000  0.41035  0.79750  0.14901  0.0000
C28  C  1.0000  0.61425  0.81177  0.16172  0.0000
C29  C  1.0000  0.80980  0.81111  0.15838  0.0000
C30  C  1.0000  0.87378  0.74124  0.15374  0.0000
C31  C  1.0000  0.00232  0.00106  0.13518  0.0000
C32  C  1.0000  0.06844  0.93336  0.13628  0.0000
C33  C  1.0000  0.20040  0.99558  0.13286  0.0000
C34  C  1.0000  0.26833  0.92909  0.13836  0.0000
C35  C  1.0000  0.40111  0.99660  0.14064  0.0000
C36  C  1.0000  0.47029  0.93127  0.14683  0.0000
C37  C  1.0000  0.60305  0.00330  0.14763  0.0000
C38  C  1.0000  0.67434  0.94152  0.15321  0.0000
C39  C  1.0000  0.80577  0.00724  0.14675  0.0000
C40  C  1.0000  0.87233  0.93979  0.14608  0.0000
N1  N  1.0000  0.58233  0.39142  0.15236  0.0000
N2  N  1.0000  0.80480  0.61165  0.16011  0.0000
N3  N  1.0000  0.68244  0.74970  0.17373  0.0000
N4  N  1.0000  0.39001  0.38713  0.13009  0.0000
N5  N  1.0000  0.25761  0.52280  0.13251  0.0000
N6  N  1.0000  0.48696  0.74280  0.15548  0.0000
Pt1  Pt  1.0000  0.44326  0.56548  0.14203  0.0000
W1  W  1.0000  0.62528  0.56321  0.18840  0.0000
