data_CNPtY
_audit_creation_method           'pos2cif.pl'
_cell_length_a               12.3170003891
_cell_length_b               12.3170003891315
_cell_length_c               20
_cell_angle_alpha            90
_cell_angle_beta             90
_cell_angle_gamma            120.010002136348
_symmetry_space_group_H-M        'P1'
_symmetry_Int_Tables_number      '1'
_symmetry_cell_setting           'triclinic'
loop_
_symmetry_equiv_pos_as_xyz
x,y,z

loop_
_atom_site_label
_atom_site_type_symbol
_atom_site_occupancy
_atom_site_fract_x
_atom_site_fract_y
_atom_site_fract_z
_atom_site_U_iso_or_equiv
C1  C  1.0000  -0.00200  0.19966  0.12756  0.0000
C2  C  1.0000  0.06445  0.13216  0.12392  0.0000
C3  C  1.0000  0.19676  0.19578  0.12278  0.0000
C4  C  1.0000  0.26370  0.12813  0.12588  0.0000
C5  C  1.0000  0.39539  0.19387  0.13135  0.0000
C6  C  1.0000  0.46460  0.13001  0.13700  0.0000
C7  C  1.0000  0.59744  0.20134  0.14173  0.0000
C8  C  1.0000  0.66625  0.13646  0.14224  0.0000
C9  C  1.0000  0.79883  0.20388  0.13932  0.0000
C10  C  1.0000  0.86669  0.13710  0.13511  0.0000
C11  C  1.0000  -0.00465  0.39975  0.13570  0.0000
C12  C  1.0000  0.06157  0.33143  0.12824  0.0000
C13  C  1.0000  0.19378  0.39625  0.12649  0.0000
C14  C  1.0000  0.26180  0.32686  0.12700  0.0000
C15  C  1.0000  0.45746  0.32559  0.13947  0.0000
C16  C  1.0000  0.65734  0.33444  0.14771  0.0000
C17  C  1.0000  0.79324  0.40480  0.14822  0.0000
C18  C  1.0000  0.86178  0.33715  0.14064  0.0000
C19  C  1.0000  -0.00033  0.60076  0.14450  0.0000
C20  C  1.0000  0.06461  0.53227  0.13923  0.0000
C21  C  1.0000  0.19939  0.59279  0.13768  0.0000
C22  C  1.0000  0.86551  0.54026  0.15135  0.0000
C23  C  1.0000  0.00397  0.80186  0.14112  0.0000
C24  C  1.0000  0.07071  0.73367  0.14196  0.0000
C25  C  1.0000  0.20503  0.79592  0.14043  0.0000
C26  C  1.0000  0.27395  0.72809  0.14419  0.0000
C27  C  1.0000  0.40978  0.79765  0.15186  0.0000
C28  C  1.0000  0.61401  0.81292  0.16274  0.0000
C29  C  1.0000  0.80769  0.80988  0.15605  0.0000
C30  C  1.0000  0.87257  0.73853  0.15246  0.0000
C31  C  1.0000  0.00199  0.00056  0.12997  0.0000
C32  C  1.0000  0.06818  0.93284  0.13187  0.0000
C33  C  1.0000  0.20054  0.99588  0.12946  0.0000
C34  C  1.0000  0.26832  0.92942  0.13604  0.0000
C35  C  1.0000  0.40100  0.99650  0.13889  0.0000
C36  C  1.0000  0.46977  0.93148  0.14657  0.0000
C37  C  1.0000  0.60272  0.00352  0.14627  0.0000
C38  C  1.0000  0.67379  0.94183  0.15026  0.0000
C39  C  1.0000  0.80491  0.00613  0.14205  0.0000
C40  C  1.0000  0.87181  0.93868  0.14128  0.0000
N1  N  1.0000  0.58384  0.39128  0.15305  0.0000
N2  N  1.0000  0.80781  0.61009  0.16109  0.0000
N3  N  1.0000  0.68255  0.75349  0.17261  0.0000
N4  N  1.0000  0.39016  0.38756  0.13917  0.0000
N5  N  1.0000  0.25626  0.52376  0.12991  0.0000
N6  N  1.0000  0.48556  0.74350  0.16351  0.0000
Pt1  Pt  1.0000  0.44007  0.56255  0.15945  0.0000
Y1  Y  1.0000  0.62641  0.56281  0.21655  0.0000
