data_CNPtZn
_audit_creation_method           'pos2cif.pl'
_cell_length_a               12.3170003891
_cell_length_b               12.3170003891315
_cell_length_c               20
_cell_angle_alpha            90
_cell_angle_beta             90
_cell_angle_gamma            120.010002136348
_symmetry_space_group_H-M        'P1'
_symmetry_Int_Tables_number      '1'
_symmetry_cell_setting           'triclinic'
loop_
_symmetry_equiv_pos_as_xyz
x,y,z

loop_
_atom_site_label
_atom_site_type_symbol
_atom_site_occupancy
_atom_site_fract_x
_atom_site_fract_y
_atom_site_fract_z
_atom_site_U_iso_or_equiv
C1  C  1.0000  0.99816  0.19958  0.14070  0.0000
C2  C  1.0000  0.06444  0.13209  0.13824  0.0000
C3  C  1.0000  0.19622  0.19506  0.14175  0.0000
C4  C  1.0000  0.26295  0.12787  0.14113  0.0000
C5  C  1.0000  0.39424  0.19395  0.14514  0.0000
C6  C  1.0000  0.46444  0.13084  0.14320  0.0000
C7  C  1.0000  0.59737  0.20167  0.14501  0.0000
C8  C  1.0000  0.66636  0.13702  0.14197  0.0000
C9  C  1.0000  0.79888  0.20427  0.14237  0.0000
C10  C  1.0000  0.86656  0.13733  0.13908  0.0000
C11  C  1.0000  0.99601  0.39994  0.14509  0.0000
C12  C  1.0000  0.06189  0.33100  0.14400  0.0000
C13  C  1.0000  0.19359  0.39407  0.14511  0.0000
C14  C  1.0000  0.26110  0.32543  0.14803  0.0000
C15  C  1.0000  0.45645  0.32518  0.15293  0.0000
C16  C  1.0000  0.65724  0.33494  0.14988  0.0000
C17  C  1.0000  0.79335  0.40542  0.14880  0.0000
C18  C  1.0000  0.86195  0.33756  0.14569  0.0000
C19  C  1.0000  0.00098  0.60098  0.14341  0.0000
C20  C  1.0000  0.06658  0.53240  0.14502  0.0000
C21  C  1.0000  0.20179  0.59326  0.14474  0.0000
C22  C  1.0000  0.86624  0.54061  0.14684  0.0000
C23  C  1.0000  0.00474  0.80182  0.13494  0.0000
C24  C  1.0000  0.07112  0.73356  0.13959  0.0000
C25  C  1.0000  0.20529  0.79613  0.14075  0.0000
C26  C  1.0000  0.27429  0.72853  0.14400  0.0000
C27  C  1.0000  0.41007  0.79930  0.14476  0.0000
C28  C  1.0000  0.61154  0.81032  0.13711  0.0000
C29  C  1.0000  0.80350  0.80574  0.13194  0.0000
C30  C  1.0000  0.87218  0.73759  0.13574  0.0000
C31  C  1.0000  0.00189  0.00056  0.13490  0.0000
C32  C  1.0000  0.06864  0.93341  0.13441  0.0000
C33  C  1.0000  0.20044  0.99619  0.13752  0.0000
C34  C  1.0000  0.26829  0.92963  0.13935  0.0000
C35  C  1.0000  0.40093  0.99760  0.14069  0.0000
C36  C  1.0000  0.47009  0.93283  0.14110  0.0000
C37  C  1.0000  0.60275  0.00407  0.13941  0.0000
C38  C  1.0000  0.67276  0.94103  0.13548  0.0000
C39  C  1.0000  0.80426  0.00591  0.13484  0.0000
C40  C  1.0000  0.86999  0.93738  0.13373  0.0000
N1  N  1.0000  0.58354  0.39035  0.15549  0.0000
N2  N  1.0000  0.80862  0.61154  0.14629  0.0000
N3  N  1.0000  0.67433  0.74390  0.12957  0.0000
N4  N  1.0000  0.38921  0.38794  0.15827  0.0000
N5  N  1.0000  0.25878  0.52186  0.14340  0.0000
N6  N  1.0000  0.48580  0.74524  0.14912  0.0000
Pt1  Pt  1.0000  0.44053  0.56879  0.16204  0.0000
Zn1  Zn  1.0000  0.63670  0.56947  0.16939  0.0000
