data_CNPtZr
_audit_creation_method           'pos2cif.pl'
_cell_length_a               12.3170003891
_cell_length_b               12.3170003891315
_cell_length_c               20
_cell_angle_alpha            90
_cell_angle_beta             90
_cell_angle_gamma            120.010002136348
_symmetry_space_group_H-M        'P1'
_symmetry_Int_Tables_number      '1'
_symmetry_cell_setting           'triclinic'
loop_
_symmetry_equiv_pos_as_xyz
x,y,z

loop_
_atom_site_label
_atom_site_type_symbol
_atom_site_occupancy
_atom_site_fract_x
_atom_site_fract_y
_atom_site_fract_z
_atom_site_U_iso_or_equiv
C1  C  1.0000  -0.00166  0.19978  0.13060  0.0000
C2  C  1.0000  0.06445  0.13218  0.12840  0.0000
C3  C  1.0000  0.19627  0.19520  0.12591  0.0000
C4  C  1.0000  0.26322  0.12765  0.12851  0.0000
C5  C  1.0000  0.39508  0.19338  0.13217  0.0000
C6  C  1.0000  0.46446  0.12983  0.13775  0.0000
C7  C  1.0000  0.59764  0.20177  0.14113  0.0000
C8  C  1.0000  0.66649  0.13655  0.14210  0.0000
C9  C  1.0000  0.79880  0.20397  0.13965  0.0000
C10  C  1.0000  0.86695  0.13725  0.13756  0.0000
C11  C  1.0000  0.99561  0.39994  0.13623  0.0000
C12  C  1.0000  0.06193  0.33133  0.13028  0.0000
C13  C  1.0000  0.19364  0.39507  0.12903  0.0000
C14  C  1.0000  0.26067  0.32593  0.12762  0.0000
C15  C  1.0000  0.45690  0.32510  0.13660  0.0000
C16  C  1.0000  0.65796  0.33441  0.14521  0.0000
C17  C  1.0000  0.79349  0.40516  0.14605  0.0000
C18  C  1.0000  0.86216  0.33725  0.13998  0.0000
C19  C  1.0000  -0.00118  0.60058  0.14497  0.0000
C20  C  1.0000  0.06471  0.53231  0.13965  0.0000
C21  C  1.0000  0.19998  0.59315  0.13907  0.0000
C22  C  1.0000  0.86460  0.53954  0.14996  0.0000
C23  C  1.0000  0.00395  0.80194  0.14426  0.0000
C24  C  1.0000  0.07068  0.73375  0.14395  0.0000
C25  C  1.0000  0.20436  0.79570  0.14199  0.0000
C26  C  1.0000  0.27368  0.72773  0.14396  0.0000
C27  C  1.0000  0.40981  0.79773  0.14910  0.0000
C28  C  1.0000  0.61389  0.81289  0.16023  0.0000
C29  C  1.0000  0.80899  0.81034  0.15724  0.0000
C30  C  1.0000  0.87240  0.73963  0.15322  0.0000
C31  C  1.0000  0.00240  0.00099  0.13500  0.0000
C32  C  1.0000  0.06816  0.93299  0.13646  0.0000
C33  C  1.0000  0.20043  0.99588  0.13303  0.0000
C34  C  1.0000  0.26825  0.92935  0.13818  0.0000
C35  C  1.0000  0.40093  0.99668  0.13992  0.0000
C36  C  1.0000  0.47008  0.93146  0.14586  0.0000
C37  C  1.0000  0.60282  0.00355  0.14610  0.0000
C38  C  1.0000  0.67409  0.94191  0.15113  0.0000
C39  C  1.0000  0.80573  0.00699  0.14515  0.0000
C40  C  1.0000  0.87239  0.93955  0.14529  0.0000
N1  N  1.0000  0.58406  0.39215  0.14919  0.0000
N2  N  1.0000  0.80426  0.60932  0.15938  0.0000
N3  N  1.0000  0.68146  0.75116  0.17136  0.0000
N4  N  1.0000  0.39073  0.38751  0.13349  0.0000
N5  N  1.0000  0.25728  0.52312  0.13351  0.0000
N6  N  1.0000  0.48634  0.74340  0.15671  0.0000
Pt1  Pt  1.0000  0.44327  0.56461  0.14907  0.0000
Zr1  Zr  1.0000  0.62438  0.56350  0.20074  0.0000
