data_CNRe
_audit_creation_method           'pos2cif.pl'
_cell_length_a               12.3170003891
_cell_length_b               12.3170003891315
_cell_length_c               20
_cell_angle_alpha            90
_cell_angle_beta             90
_cell_angle_gamma            120.010002136348
_symmetry_space_group_H-M        'P1'
_symmetry_Int_Tables_number      '1'
_symmetry_cell_setting           'triclinic'
loop_
_symmetry_equiv_pos_as_xyz
x,y,z

loop_
_atom_site_label
_atom_site_type_symbol
_atom_site_occupancy
_atom_site_fract_x
_atom_site_fract_y
_atom_site_fract_z
_atom_site_U_iso_or_equiv
C1  C  1.0000  0.99889  0.20049  0.14472  0.0000
C2  C  1.0000  0.06423  0.13193  0.14630  0.0000
C3  C  1.0000  0.19395  0.19228  0.15819  0.0000
C4  C  1.0000  0.26091  0.12471  0.15723  0.0000
C5  C  1.0000  0.39279  0.18999  0.15877  0.0000
C6  C  1.0000  0.46380  0.12879  0.14982  0.0000
C7  C  1.0000  0.59678  0.20228  0.14593  0.0000
C8  C  1.0000  0.66652  0.13789  0.14006  0.0000
C9  C  1.0000  0.79927  0.20572  0.13934  0.0000
C10  C  1.0000  0.86782  0.13940  0.13612  0.0000
C11  C  1.0000  0.99636  0.40059  0.14656  0.0000
C12  C  1.0000  0.06264  0.33166  0.15081  0.0000
C13  C  1.0000  0.19405  0.39326  0.15819  0.0000
C14  C  1.0000  0.25709  0.32170  0.16589  0.0000
C15  C  1.0000  0.45288  0.32034  0.16193  0.0000
C16  C  1.0000  0.65615  0.33527  0.14485  0.0000
C17  C  1.0000  0.79226  0.40647  0.14208  0.0000
C18  C  1.0000  0.86239  0.33903  0.14297  0.0000
C19  C  1.0000  -0.00011  0.60090  0.14144  0.0000
C20  C  1.0000  0.06759  0.53305  0.14610  0.0000
C21  C  1.0000  0.20322  0.59299  0.14869  0.0000
C22  C  1.0000  0.86424  0.54092  0.13925  0.0000
C23  C  1.0000  0.00483  0.80212  0.13421  0.0000
C24  C  1.0000  0.07110  0.73330  0.13987  0.0000
C25  C  1.0000  0.20507  0.79481  0.14354  0.0000
C26  C  1.0000  0.27523  0.72743  0.14574  0.0000
C27  C  1.0000  0.41135  0.79858  0.14317  0.0000
C28  C  1.0000  0.61420  0.81312  0.12583  0.0000
C29  C  1.0000  0.81002  0.81173  0.11994  0.0000
C30  C  1.0000  0.87324  0.74035  0.12799  0.0000
C31  C  1.0000  0.00355  0.00223  0.13612  0.0000
C32  C  1.0000  0.06873  0.93352  0.13853  0.0000
C33  C  1.0000  0.19962  0.99455  0.14768  0.0000
C34  C  1.0000  0.26819  0.92817  0.14605  0.0000
C35  C  1.0000  0.40094  0.99595  0.14603  0.0000
C36  C  1.0000  0.47072  0.93151  0.14099  0.0000
C37  C  1.0000  0.60364  0.00502  0.13645  0.0000
C38  C  1.0000  0.67435  0.94361  0.12715  0.0000
C39  C  1.0000  0.80632  0.00906  0.12686  0.0000
C40  C  1.0000  0.87343  0.94155  0.12547  0.0000
N1  N  1.0000  0.57883  0.39078  0.14570  0.0000
N2  N  1.0000  0.80417  0.61141  0.13280  0.0000
N3  N  1.0000  0.67993  0.75043  0.11502  0.0000
N4  N  1.0000  0.38684  0.38274  0.17313  0.0000
N5  N  1.0000  0.26315  0.52240  0.15518  0.0000
N6  N  1.0000  0.48880  0.74312  0.14333  0.0000
Re1  Re  1.0000  0.45521  0.56842  0.16772  0.0000
Re2  Re  1.0000  0.61183  0.56557  0.12218  0.0000
