data_CNReRh
_audit_creation_method           'pos2cif.pl'
_cell_length_a               12.3170003891
_cell_length_b               12.3170003891315
_cell_length_c               20
_cell_angle_alpha            90
_cell_angle_beta             90
_cell_angle_gamma            120.010002136348
_symmetry_space_group_H-M        'P1'
_symmetry_Int_Tables_number      '1'
_symmetry_cell_setting           'triclinic'
loop_
_symmetry_equiv_pos_as_xyz
x,y,z

loop_
_atom_site_label
_atom_site_type_symbol
_atom_site_occupancy
_atom_site_fract_x
_atom_site_fract_y
_atom_site_fract_z
_atom_site_U_iso_or_equiv
C1  C  1.0000  0.99881  0.19987  0.14137  0.0000
C2  C  1.0000  0.06383  0.13125  0.14099  0.0000
C3  C  1.0000  0.19472  0.19248  0.14126  0.0000
C4  C  1.0000  0.26120  0.12552  0.14154  0.0000
C5  C  1.0000  0.39267  0.19173  0.14232  0.0000
C6  C  1.0000  0.46401  0.13036  0.14249  0.0000
C7  C  1.0000  0.59691  0.20185  0.14305  0.0000
C8  C  1.0000  0.66678  0.13797  0.14275  0.0000
C9  C  1.0000  0.79958  0.20530  0.14252  0.0000
C10  C  1.0000  0.86747  0.13873  0.14183  0.0000
C11  C  1.0000  0.99713  0.40026  0.14290  0.0000
C12  C  1.0000  0.06295  0.33120  0.14201  0.0000
C13  C  1.0000  0.19392  0.39156  0.14263  0.0000
C14  C  1.0000  0.25916  0.32282  0.14256  0.0000
C15  C  1.0000  0.45283  0.32197  0.14375  0.0000
C16  C  1.0000  0.65714  0.33474  0.14380  0.0000
C17  C  1.0000  0.79373  0.40588  0.14377  0.0000
C18  C  1.0000  0.86330  0.33874  0.14304  0.0000
C19  C  1.0000  0.00179  0.60067  0.14367  0.0000
C20  C  1.0000  0.06941  0.53288  0.14357  0.0000
C21  C  1.0000  0.20462  0.59379  0.14403  0.0000
C22  C  1.0000  0.86603  0.54003  0.14401  0.0000
C23  C  1.0000  0.00393  0.80121  0.14288  0.0000
C24  C  1.0000  0.07080  0.73289  0.14323  0.0000
C25  C  1.0000  0.20462  0.79528  0.14303  0.0000
C26  C  1.0000  0.27421  0.72805  0.14383  0.0000
C27  C  1.0000  0.40956  0.80226  0.14399  0.0000
C28  C  1.0000  0.61458  0.81403  0.14399  0.0000
C29  C  1.0000  0.80517  0.80758  0.14351  0.0000
C30  C  1.0000  0.87214  0.73830  0.14367  0.0000
C31  C  1.0000  0.00156  0.00001  0.14147  0.0000
C32  C  1.0000  0.06759  0.93239  0.14185  0.0000
C33  C  1.0000  0.19929  0.99448  0.14167  0.0000
C34  C  1.0000  0.26782  0.92864  0.14230  0.0000
C35  C  1.0000  0.40049  0.99761  0.14239  0.0000
C36  C  1.0000  0.47017  0.93421  0.14292  0.0000
C37  C  1.0000  0.60338  0.00570  0.14277  0.0000
C38  C  1.0000  0.67437  0.94379  0.14276  0.0000
C39  C  1.0000  0.80531  0.00739  0.14210  0.0000
C40  C  1.0000  0.87051  0.93848  0.14224  0.0000
N1  N  1.0000  0.58162  0.38862  0.14444  0.0000
N2  N  1.0000  0.80750  0.61082  0.14439  0.0000
N3  N  1.0000  0.67668  0.74784  0.14442  0.0000
N4  N  1.0000  0.38778  0.38702  0.14477  0.0000
N5  N  1.0000  0.26482  0.52025  0.14436  0.0000
N6  N  1.0000  0.48439  0.74730  0.14562  0.0000
Re1  Re  1.0000  0.44892  0.57704  0.14855  0.0000
Rh1  Rh  1.0000  0.62180  0.56037  0.14491  0.0000
