data_CNReRu
_audit_creation_method           'pos2cif.pl'
_cell_length_a               12.3170003891
_cell_length_b               12.3170003891315
_cell_length_c               20
_cell_angle_alpha            90
_cell_angle_beta             90
_cell_angle_gamma            120.010002136348
_symmetry_space_group_H-M        'P1'
_symmetry_Int_Tables_number      '1'
_symmetry_cell_setting           'triclinic'
loop_
_symmetry_equiv_pos_as_xyz
x,y,z

loop_
_atom_site_label
_atom_site_type_symbol
_atom_site_occupancy
_atom_site_fract_x
_atom_site_fract_y
_atom_site_fract_z
_atom_site_U_iso_or_equiv
C1  C  1.0000  0.99869  0.19999  0.14124  0.0000
C2  C  1.0000  0.06391  0.13147  0.14039  0.0000
C3  C  1.0000  0.19470  0.19248  0.14088  0.0000
C4  C  1.0000  0.26115  0.12534  0.14112  0.0000
C5  C  1.0000  0.39251  0.19100  0.14229  0.0000
C6  C  1.0000  0.46396  0.12973  0.14296  0.0000
C7  C  1.0000  0.59689  0.20191  0.14361  0.0000
C8  C  1.0000  0.66671  0.13787  0.14343  0.0000
C9  C  1.0000  0.79947  0.20556  0.14299  0.0000
C10  C  1.0000  0.86754  0.13914  0.14186  0.0000
C11  C  1.0000  0.99668  0.40030  0.14352  0.0000
C12  C  1.0000  0.06237  0.33111  0.14242  0.0000
C13  C  1.0000  0.19328  0.39175  0.14293  0.0000
C14  C  1.0000  0.25847  0.32257  0.14237  0.0000
C15  C  1.0000  0.45215  0.32090  0.14339  0.0000
C16  C  1.0000  0.65694  0.33466  0.14410  0.0000
C17  C  1.0000  0.79337  0.40626  0.14426  0.0000
C18  C  1.0000  0.86291  0.33900  0.14360  0.0000
C19  C  1.0000  0.00105  0.60080  0.14413  0.0000
C20  C  1.0000  0.06858  0.53294  0.14417  0.0000
C21  C  1.0000  0.20352  0.59322  0.14434  0.0000
C22  C  1.0000  0.86555  0.54061  0.14438  0.0000
C23  C  1.0000  0.00450  0.80162  0.14236  0.0000
C24  C  1.0000  0.07098  0.73300  0.14332  0.0000
C25  C  1.0000  0.20487  0.79501  0.14331  0.0000
C26  C  1.0000  0.27441  0.72768  0.14419  0.0000
C27  C  1.0000  0.41018  0.80116  0.14431  0.0000
C28  C  1.0000  0.61611  0.81464  0.14416  0.0000
C29  C  1.0000  0.80694  0.80909  0.14303  0.0000
C30  C  1.0000  0.87304  0.73927  0.14325  0.0000
C31  C  1.0000  0.00235  0.00063  0.14050  0.0000
C32  C  1.0000  0.06809  0.93274  0.14099  0.0000
C33  C  1.0000  0.19955  0.99438  0.14120  0.0000
C34  C  1.0000  0.26800  0.92832  0.14244  0.0000
C35  C  1.0000  0.40065  0.99696  0.14302  0.0000
C36  C  1.0000  0.47033  0.93324  0.14375  0.0000
C37  C  1.0000  0.60366  0.00557  0.14354  0.0000
C38  C  1.0000  0.67508  0.94420  0.14318  0.0000
C39  C  1.0000  0.80589  0.00798  0.14199  0.0000
C40  C  1.0000  0.87145  0.93948  0.14156  0.0000
N1  N  1.0000  0.58115  0.38906  0.14442  0.0000
N2  N  1.0000  0.80714  0.61189  0.14447  0.0000
N3  N  1.0000  0.67872  0.74902  0.14443  0.0000
N4  N  1.0000  0.38709  0.38572  0.14377  0.0000
N5  N  1.0000  0.26254  0.51998  0.14428  0.0000
N6  N  1.0000  0.48604  0.74649  0.14500  0.0000
Re1  Re  1.0000  0.45008  0.57461  0.14565  0.0000
Ru1  Ru  1.0000  0.61781  0.56078  0.14544  0.0000
