data_CNReSc
_audit_creation_method           'pos2cif.pl'
_cell_length_a               12.3170003891
_cell_length_b               12.3170003891315
_cell_length_c               20
_cell_angle_alpha            90
_cell_angle_beta             90
_cell_angle_gamma            120.010002136348
_symmetry_space_group_H-M        'P1'
_symmetry_Int_Tables_number      '1'
_symmetry_cell_setting           'triclinic'
loop_
_symmetry_equiv_pos_as_xyz
x,y,z

loop_
_atom_site_label
_atom_site_type_symbol
_atom_site_occupancy
_atom_site_fract_x
_atom_site_fract_y
_atom_site_fract_z
_atom_site_U_iso_or_equiv
C1  C  1.0000  0.00002  0.19973  0.13880  0.0000
C2  C  1.0000  0.06406  0.13046  0.13724  0.0000
C3  C  1.0000  0.19638  0.19417  0.13551  0.0000
C4  C  1.0000  0.26232  0.12675  0.13540  0.0000
C5  C  1.0000  0.39455  0.19448  0.13596  0.0000
C6  C  1.0000  0.46476  0.13203  0.13919  0.0000
C7  C  1.0000  0.59813  0.20269  0.14088  0.0000
C8  C  1.0000  0.66742  0.13842  0.14201  0.0000
C9  C  1.0000  0.80049  0.20456  0.14194  0.0000
C10  C  1.0000  0.86804  0.13727  0.14030  0.0000
C11  C  1.0000  -0.00112  0.40002  0.14260  0.0000
C12  C  1.0000  0.06521  0.33163  0.13973  0.0000
C13  C  1.0000  0.19716  0.39382  0.13791  0.0000
C14  C  1.0000  0.26259  0.32534  0.13473  0.0000
C15  C  1.0000  0.45814  0.32596  0.13588  0.0000
C16  C  1.0000  0.65929  0.33532  0.14372  0.0000
C17  C  1.0000  0.79519  0.40461  0.14689  0.0000
C18  C  1.0000  0.86483  0.33757  0.14384  0.0000
C19  C  1.0000  0.00183  0.59989  0.14553  0.0000
C20  C  1.0000  0.07027  0.53269  0.14331  0.0000
C21  C  1.0000  0.20611  0.59433  0.14216  0.0000
C22  C  1.0000  0.86633  0.53863  0.14966  0.0000
C23  C  1.0000  0.00066  0.79905  0.14196  0.0000
C24  C  1.0000  0.06927  0.73247  0.14356  0.0000
C25  C  1.0000  0.20332  0.79593  0.14274  0.0000
C26  C  1.0000  0.27342  0.72933  0.14442  0.0000
C27  C  1.0000  0.40785  0.80421  0.14795  0.0000
C28  C  1.0000  0.61096  0.81578  0.15076  0.0000
C29  C  1.0000  0.79881  0.80080  0.14443  0.0000
C30  C  1.0000  0.86709  0.73371  0.14672  0.0000
C31  C  1.0000  -0.00077  -0.00220  0.13819  0.0000
C32  C  1.0000  0.06562  0.93074  0.13838  0.0000
C33  C  1.0000  0.19849  0.99493  0.13756  0.0000
C34  C  1.0000  0.26702  0.92954  0.14048  0.0000
C35  C  1.0000  0.40010  -0.00054  0.14143  0.0000
C36  C  1.0000  0.46963  0.93621  0.14540  0.0000
C37  C  1.0000  0.60274  0.00648  0.14412  0.0000
C38  C  1.0000  0.67340  0.94401  0.14502  0.0000
C39  C  1.0000  0.80464  0.00589  0.14128  0.0000
C40  C  1.0000  0.86666  0.93366  0.14061  0.0000
N1  N  1.0000  0.58616  0.39249  0.14407  0.0000
N2  N  1.0000  0.80396  0.60570  0.15580  0.0000
N3  N  1.0000  0.66623  0.74016  0.15208  0.0000
N4  N  1.0000  0.39440  0.39267  0.13207  0.0000
N5  N  1.0000  0.26824  0.52319  0.13905  0.0000
N6  N  1.0000  0.48286  0.75030  0.15110  0.0000
Re1  Re  1.0000  0.45743  0.58374  0.13300  0.0000
Sc1  Sc  1.0000  0.61685  0.55255  0.19659  0.0000
