data_CNReTa
_audit_creation_method           'pos2cif.pl'
_cell_length_a               12.3170003891
_cell_length_b               12.3170003891315
_cell_length_c               20
_cell_angle_alpha            90
_cell_angle_beta             90
_cell_angle_gamma            120.010002136348
_symmetry_space_group_H-M        'P1'
_symmetry_Int_Tables_number      '1'
_symmetry_cell_setting           'triclinic'
loop_
_symmetry_equiv_pos_as_xyz
x,y,z

loop_
_atom_site_label
_atom_site_type_symbol
_atom_site_occupancy
_atom_site_fract_x
_atom_site_fract_y
_atom_site_fract_z
_atom_site_U_iso_or_equiv
C1  C  1.0000  -0.00188  0.20009  0.12767  0.0000
C2  C  1.0000  0.06501  0.13301  0.12412  0.0000
C3  C  1.0000  0.19679  0.19617  0.12947  0.0000
C4  C  1.0000  0.26382  0.12872  0.13183  0.0000
C5  C  1.0000  0.39529  0.19481  0.13989  0.0000
C6  C  1.0000  0.46464  0.13053  0.14217  0.0000
C7  C  1.0000  0.59740  0.20269  0.14583  0.0000
C8  C  1.0000  0.66582  0.13656  0.14109  0.0000
C9  C  1.0000  0.79837  0.20400  0.13730  0.0000
C10  C  1.0000  0.86596  0.13702  0.13054  0.0000
C11  C  1.0000  0.99529  0.39985  0.13887  0.0000
C12  C  1.0000  0.06171  0.33162  0.13378  0.0000
C13  C  1.0000  0.19363  0.39511  0.13954  0.0000
C14  C  1.0000  0.25936  0.32515  0.14005  0.0000
C15  C  1.0000  0.45521  0.32438  0.15238  0.0000
C16  C  1.0000  0.65762  0.33629  0.15249  0.0000
C17  C  1.0000  0.79262  0.40545  0.14730  0.0000
C18  C  1.0000  0.86125  0.33726  0.14063  0.0000
C19  C  1.0000  -0.00019  0.60118  0.14209  0.0000
C20  C  1.0000  0.06560  0.53248  0.14285  0.0000
C21  C  1.0000  0.20019  0.59265  0.14661  0.0000
C22  C  1.0000  0.86490  0.54069  0.14466  0.0000
C23  C  1.0000  0.00504  0.80180  0.13251  0.0000
C24  C  1.0000  0.07122  0.73360  0.13808  0.0000
C25  C  1.0000  0.20557  0.79612  0.14044  0.0000
C26  C  1.0000  0.27407  0.72812  0.14763  0.0000
C27  C  1.0000  0.40988  0.79736  0.15123  0.0000
C28  C  1.0000  0.61325  0.80978  0.15090  0.0000
C29  C  1.0000  0.80811  0.80875  0.13872  0.0000
C30  C  1.0000  0.87249  0.73789  0.13685  0.0000
C31  C  1.0000  0.00295  0.00124  0.12392  0.0000
C32  C  1.0000  0.06912  0.93342  0.12730  0.0000
C33  C  1.0000  0.20145  0.99686  0.13063  0.0000
C34  C  1.0000  0.26877  0.92960  0.13703  0.0000
C35  C  1.0000  0.40134  0.99688  0.14070  0.0000
C36  C  1.0000  0.46983  0.93069  0.14464  0.0000
C37  C  1.0000  0.60266  0.00311  0.14147  0.0000
C38  C  1.0000  0.67239  0.93912  0.13904  0.0000
C39  C  1.0000  0.80388  0.00519  0.13145  0.0000
C40  C  1.0000  0.87143  0.93851  0.12892  0.0000
N1  N  1.0000  0.58275  0.39350  0.16373  0.0000
N2  N  1.0000  0.80462  0.60985  0.14494  0.0000
N3  N  1.0000  0.68273  0.74919  0.15559  0.0000
N4  N  1.0000  0.38579  0.38488  0.15786  0.0000
N5  N  1.0000  0.25853  0.52244  0.14785  0.0000
N6  N  1.0000  0.48567  0.74075  0.16196  0.0000
Re1  Re  1.0000  0.44210  0.55919  0.18582  0.0000
Ta1  Ta  1.0000  0.63299  0.57758  0.20158  0.0000
