data_CNReTc
_audit_creation_method           'pos2cif.pl'
_cell_length_a               12.3170003891
_cell_length_b               12.3170003891315
_cell_length_c               20
_cell_angle_alpha            90
_cell_angle_beta             90
_cell_angle_gamma            120.010002136348
_symmetry_space_group_H-M        'P1'
_symmetry_Int_Tables_number      '1'
_symmetry_cell_setting           'triclinic'
loop_
_symmetry_equiv_pos_as_xyz
x,y,z

loop_
_atom_site_label
_atom_site_type_symbol
_atom_site_occupancy
_atom_site_fract_x
_atom_site_fract_y
_atom_site_fract_z
_atom_site_U_iso_or_equiv
C1  C  1.0000  0.99883  0.20037  0.13700  0.0000
C2  C  1.0000  0.06378  0.13145  0.13439  0.0000
C3  C  1.0000  0.19465  0.19274  0.12728  0.0000
C4  C  1.0000  0.26145  0.12513  0.12857  0.0000
C5  C  1.0000  0.39323  0.19042  0.13043  0.0000
C6  C  1.0000  0.46385  0.12880  0.13784  0.0000
C7  C  1.0000  0.59670  0.20211  0.14189  0.0000
C8  C  1.0000  0.66649  0.13782  0.14510  0.0000
C9  C  1.0000  0.79931  0.20548  0.14467  0.0000
C10  C  1.0000  0.86779  0.13920  0.14468  0.0000
C11  C  1.0000  0.99650  0.40042  0.14023  0.0000
C12  C  1.0000  0.06291  0.33188  0.13494  0.0000
C13  C  1.0000  0.19471  0.39385  0.13098  0.0000
C14  C  1.0000  0.25841  0.32288  0.12486  0.0000
C15  C  1.0000  0.45397  0.32096  0.13161  0.0000
C16  C  1.0000  0.65622  0.33504  0.14507  0.0000
C17  C  1.0000  0.79244  0.40598  0.14635  0.0000
C18  C  1.0000  0.86252  0.33887  0.14345  0.0000
C19  C  1.0000  -0.00010  0.60062  0.14525  0.0000
C20  C  1.0000  0.06768  0.53289  0.14180  0.0000
C21  C  1.0000  0.20317  0.59295  0.14045  0.0000
C22  C  1.0000  0.86414  0.54059  0.14801  0.0000
C23  C  1.0000  0.00375  0.80154  0.14705  0.0000
C24  C  1.0000  0.07046  0.73296  0.14458  0.0000
C25  C  1.0000  0.20464  0.79479  0.14209  0.0000
C26  C  1.0000  0.27468  0.72743  0.14267  0.0000
C27  C  1.0000  0.41062  0.79877  0.14576  0.0000
C28  C  1.0000  0.61495  0.81449  0.16045  0.0000
C29  C  1.0000  0.80872  0.81109  0.16091  0.0000
C30  C  1.0000  0.87202  0.73920  0.15403  0.0000
C31  C  1.0000  0.00246  0.00117  0.14208  0.0000
C32  C  1.0000  0.06783  0.93270  0.14131  0.0000
C33  C  1.0000  0.19936  0.99425  0.13522  0.0000
C34  C  1.0000  0.26789  0.92806  0.13882  0.0000
C35  C  1.0000  0.40066  0.99586  0.14031  0.0000
C36  C  1.0000  0.47028  0.93168  0.14577  0.0000
C37  C  1.0000  0.60342  0.00519  0.14833  0.0000
C38  C  1.0000  0.67481  0.94433  0.15536  0.0000
C39  C  1.0000  0.80624  0.00870  0.15254  0.0000
C40  C  1.0000  0.87246  0.94052  0.15265  0.0000
N1  N  1.0000  0.57952  0.39010  0.14717  0.0000
N2  N  1.0000  0.80431  0.61055  0.15292  0.0000
N3  N  1.0000  0.68029  0.75236  0.17064  0.0000
N4  N  1.0000  0.38838  0.38429  0.12314  0.0000
N5  N  1.0000  0.26360  0.52250  0.13577  0.0000
N6  N  1.0000  0.48733  0.74331  0.14806  0.0000
Re1  Re  1.0000  0.45809  0.56923  0.12987  0.0000
Tc1  Tc  1.0000  0.61161  0.56562  0.16956  0.0000
