data_CNReTi
_audit_creation_method           'pos2cif.pl'
_cell_length_a               12.3170003891
_cell_length_b               12.3170003891315
_cell_length_c               20
_cell_angle_alpha            90
_cell_angle_beta             90
_cell_angle_gamma            120.010002136348
_symmetry_space_group_H-M        'P1'
_symmetry_Int_Tables_number      '1'
_symmetry_cell_setting           'triclinic'
loop_
_symmetry_equiv_pos_as_xyz
x,y,z

loop_
_atom_site_label
_atom_site_type_symbol
_atom_site_occupancy
_atom_site_fract_x
_atom_site_fract_y
_atom_site_fract_z
_atom_site_U_iso_or_equiv
C1  C  1.0000  -0.00013  0.20071  0.14135  0.0000
C2  C  1.0000  0.06455  0.13161  0.14077  0.0000
C3  C  1.0000  0.19487  0.19165  0.14109  0.0000
C4  C  1.0000  0.26161  0.12462  0.14129  0.0000
C5  C  1.0000  0.39324  0.18983  0.14204  0.0000
C6  C  1.0000  0.46420  0.12858  0.14241  0.0000
C7  C  1.0000  0.59741  0.20239  0.14297  0.0000
C8  C  1.0000  0.66726  0.13881  0.14267  0.0000
C9  C  1.0000  0.80005  0.20591  0.14248  0.0000
C10  C  1.0000  0.86825  0.13948  0.14170  0.0000
C11  C  1.0000  0.99756  0.40069  0.14298  0.0000
C12  C  1.0000  0.06405  0.33209  0.14220  0.0000
C13  C  1.0000  0.19566  0.39274  0.14277  0.0000
C14  C  1.0000  0.25886  0.32109  0.14247  0.0000
C15  C  1.0000  0.45460  0.31986  0.14347  0.0000
C16  C  1.0000  0.65684  0.33535  0.14380  0.0000
C17  C  1.0000  0.79295  0.40547  0.14385  0.0000
C18  C  1.0000  0.86335  0.33891  0.14307  0.0000
C19  C  1.0000  0.00005  0.60039  0.14370  0.0000
C20  C  1.0000  0.06847  0.53303  0.14356  0.0000
C21  C  1.0000  0.20455  0.59417  0.14394  0.0000
C22  C  1.0000  0.86363  0.53991  0.14416  0.0000
C23  C  1.0000  0.00306  0.80045  0.14266  0.0000
C24  C  1.0000  0.07030  0.73261  0.14320  0.0000
C25  C  1.0000  0.20462  0.79479  0.14313  0.0000
C26  C  1.0000  0.27515  0.72830  0.14392  0.0000
C27  C  1.0000  0.41105  0.79958  0.14416  0.0000
C28  C  1.0000  0.61449  0.81624  0.14428  0.0000
C29  C  1.0000  0.80806  0.81101  0.14341  0.0000
C30  C  1.0000  0.87073  0.73800  0.14357  0.0000
C31  C  1.0000  0.00305  0.00099  0.14105  0.0000
C32  C  1.0000  0.06765  0.93198  0.14158  0.0000
C33  C  1.0000  0.19941  0.99370  0.14155  0.0000
C34  C  1.0000  0.26787  0.92783  0.14238  0.0000
C35  C  1.0000  0.40070  0.99588  0.14253  0.0000
C36  C  1.0000  0.47066  0.93236  0.14314  0.0000
C37  C  1.0000  0.60370  0.00649  0.14272  0.0000
C38  C  1.0000  0.67458  0.94531  0.14264  0.0000
C39  C  1.0000  0.80618  0.00869  0.14183  0.0000
C40  C  1.0000  0.87267  0.94080  0.14181  0.0000
N1  N  1.0000  0.58284  0.39184  0.14464  0.0000
N2  N  1.0000  0.80229  0.60878  0.14468  0.0000
N3  N  1.0000  0.68068  0.75508  0.14515  0.0000
N4  N  1.0000  0.38685  0.38073  0.14447  0.0000
N5  N  1.0000  0.26429  0.52235  0.14405  0.0000
N6  N  1.0000  0.48590  0.74318  0.14553  0.0000
Re1  Re  1.0000  0.44603  0.56223  0.14722  0.0000
Ti1  Ti  1.0000  0.61231  0.57465  0.14792  0.0000
