data_CNReV
_audit_creation_method           'pos2cif.pl'
_cell_length_a               12.3170003891
_cell_length_b               12.3170003891315
_cell_length_c               20
_cell_angle_alpha            90
_cell_angle_beta             90
_cell_angle_gamma            120.010002136348
_symmetry_space_group_H-M        'P1'
_symmetry_Int_Tables_number      '1'
_symmetry_cell_setting           'triclinic'
loop_
_symmetry_equiv_pos_as_xyz
x,y,z

loop_
_atom_site_label
_atom_site_type_symbol
_atom_site_occupancy
_atom_site_fract_x
_atom_site_fract_y
_atom_site_fract_z
_atom_site_U_iso_or_equiv
C1  C  1.0000  0.00008  0.20024  0.13793  0.0000
C2  C  1.0000  0.06442  0.13125  0.13550  0.0000
C3  C  1.0000  0.19681  0.19489  0.13381  0.0000
C4  C  1.0000  0.26228  0.12679  0.13344  0.0000
C5  C  1.0000  0.39437  0.19374  0.13538  0.0000
C6  C  1.0000  0.46436  0.13103  0.13967  0.0000
C7  C  1.0000  0.59775  0.20195  0.14244  0.0000
C8  C  1.0000  0.66723  0.13777  0.14297  0.0000
C9  C  1.0000  0.80029  0.20468  0.14275  0.0000
C10  C  1.0000  0.86803  0.13767  0.14031  0.0000
C11  C  1.0000  0.99871  0.40035  0.14315  0.0000
C12  C  1.0000  0.06526  0.33212  0.13951  0.0000
C13  C  1.0000  0.19769  0.39489  0.13809  0.0000
C14  C  1.0000  0.26326  0.32618  0.13415  0.0000
C15  C  1.0000  0.45714  0.32464  0.13753  0.0000
C16  C  1.0000  0.65875  0.33417  0.14693  0.0000
C17  C  1.0000  0.79437  0.40449  0.14848  0.0000
C18  C  1.0000  0.86428  0.33777  0.14480  0.0000
C19  C  1.0000  0.00073  0.60009  0.14589  0.0000
C20  C  1.0000  0.06947  0.53285  0.14417  0.0000
C21  C  1.0000  0.20565  0.59413  0.14346  0.0000
C22  C  1.0000  0.86500  0.53913  0.14981  0.0000
C23  C  1.0000  0.00078  0.79948  0.14055  0.0000
C24  C  1.0000  0.06901  0.73253  0.14287  0.0000
C25  C  1.0000  0.20322  0.79565  0.14232  0.0000
C26  C  1.0000  0.27340  0.72907  0.14504  0.0000
C27  C  1.0000  0.40813  0.80290  0.14837  0.0000
C28  C  1.0000  0.61125  0.81481  0.15325  0.0000
C29  C  1.0000  0.80012  0.80294  0.14485  0.0000
C30  C  1.0000  0.86750  0.73495  0.14543  0.0000
C31  C  1.0000  -0.00018  -0.00126  0.13623  0.0000
C32  C  1.0000  0.06583  0.93121  0.13648  0.0000
C33  C  1.0000  0.19855  0.99493  0.13572  0.0000
C34  C  1.0000  0.26682  0.92911  0.13949  0.0000
C35  C  1.0000  0.39997  0.99855  0.14126  0.0000
C36  C  1.0000  0.46956  0.93517  0.14561  0.0000
C37  C  1.0000  0.60267  0.00558  0.14480  0.0000
C38  C  1.0000  0.67340  0.94318  0.14618  0.0000
C39  C  1.0000  0.80471  0.00634  0.14163  0.0000
C40  C  1.0000  0.86735  0.93497  0.13979  0.0000
N1  N  1.0000  0.58426  0.39015  0.15076  0.0000
N2  N  1.0000  0.80266  0.60694  0.15329  0.0000
N3  N  1.0000  0.66912  0.74180  0.15647  0.0000
N4  N  1.0000  0.39472  0.39200  0.13218  0.0000
N5  N  1.0000  0.26712  0.52344  0.14106  0.0000
N6  N  1.0000  0.48304  0.74906  0.15269  0.0000
Re1  Re  1.0000  0.46204  0.58249  0.13656  0.0000
V1  V  1.0000  0.61603  0.55435  0.17888  0.0000
