data_CNReW
_audit_creation_method           'pos2cif.pl'
_cell_length_a               12.3170003891
_cell_length_b               12.3170003891315
_cell_length_c               20
_cell_angle_alpha            90
_cell_angle_beta             90
_cell_angle_gamma            120.010002136348
_symmetry_space_group_H-M        'P1'
_symmetry_Int_Tables_number      '1'
_symmetry_cell_setting           'triclinic'
loop_
_symmetry_equiv_pos_as_xyz
x,y,z

loop_
_atom_site_label
_atom_site_type_symbol
_atom_site_occupancy
_atom_site_fract_x
_atom_site_fract_y
_atom_site_fract_z
_atom_site_U_iso_or_equiv
C1  C  1.0000  0.99835  0.19998  0.13574  0.0000
C2  C  1.0000  0.06372  0.13136  0.13287  0.0000
C3  C  1.0000  0.19440  0.19268  0.12346  0.0000
C4  C  1.0000  0.26140  0.12488  0.12482  0.0000
C5  C  1.0000  0.39350  0.19032  0.12570  0.0000
C6  C  1.0000  0.46385  0.12870  0.13546  0.0000
C7  C  1.0000  0.59688  0.20222  0.14052  0.0000
C8  C  1.0000  0.66644  0.13781  0.14551  0.0000
C9  C  1.0000  0.79918  0.20553  0.14493  0.0000
C10  C  1.0000  0.86760  0.13882  0.14539  0.0000
C11  C  1.0000  0.99617  0.40044  0.13945  0.0000
C12  C  1.0000  0.06208  0.33149  0.13292  0.0000
C13  C  1.0000  0.19418  0.39422  0.12803  0.0000
C14  C  1.0000  0.25874  0.32293  0.11939  0.0000
C15  C  1.0000  0.45409  0.32086  0.12533  0.0000
C16  C  1.0000  0.65619  0.33516  0.14327  0.0000
C17  C  1.0000  0.79190  0.40589  0.14595  0.0000
C18  C  1.0000  0.86185  0.33861  0.14305  0.0000
C19  C  1.0000  0.99974  0.60075  0.14662  0.0000
C20  C  1.0000  0.06672  0.53266  0.14188  0.0000
C21  C  1.0000  0.20232  0.59239  0.14050  0.0000
C22  C  1.0000  0.86414  0.54108  0.14957  0.0000
C23  C  1.0000  0.00477  0.80212  0.14924  0.0000
C24  C  1.0000  0.07087  0.73312  0.14619  0.0000
C25  C  1.0000  0.20540  0.79494  0.14266  0.0000
C26  C  1.0000  0.27540  0.72758  0.14332  0.0000
C27  C  1.0000  0.41160  0.79861  0.14653  0.0000
C28  C  1.0000  0.61468  0.81473  0.16498  0.0000
C29  C  1.0000  0.80989  0.81197  0.16622  0.0000
C30  C  1.0000  0.87308  0.73982  0.15804  0.0000
C31  C  1.0000  0.00267  0.00129  0.14259  0.0000
C32  C  1.0000  0.06841  0.93301  0.14174  0.0000
C33  C  1.0000  0.19971  0.99439  0.13379  0.0000
C34  C  1.0000  0.26822  0.92807  0.13812  0.0000
C35  C  1.0000  0.40107  0.99599  0.13939  0.0000
C36  C  1.0000  0.47067  0.93172  0.14643  0.0000
C37  C  1.0000  0.60361  0.00523  0.15010  0.0000
C38  C  1.0000  0.67479  0.94432  0.15950  0.0000
C39  C  1.0000  0.80664  0.00907  0.15561  0.0000
C40  C  1.0000  0.87319  0.94096  0.15567  0.0000
N1  N  1.0000  0.57898  0.39066  0.14407  0.0000
N2  N  1.0000  0.80511  0.61114  0.15644  0.0000
N3  N  1.0000  0.68140  0.75295  0.17771  0.0000
N4  N  1.0000  0.38865  0.38363  0.11553  0.0000
N5  N  1.0000  0.26081  0.52188  0.13504  0.0000
N6  N  1.0000  0.48924  0.74361  0.14927  0.0000
Re1  Re  1.0000  0.45660  0.56769  0.12720  0.0000
W1  W  1.0000  0.60812  0.56387  0.17617  0.0000
