data_CNReY
_audit_creation_method           'pos2cif.pl'
_cell_length_a               12.3170003891
_cell_length_b               12.3170003891315
_cell_length_c               20
_cell_angle_alpha            90
_cell_angle_beta             90
_cell_angle_gamma            120.010002136348
_symmetry_space_group_H-M        'P1'
_symmetry_Int_Tables_number      '1'
_symmetry_cell_setting           'triclinic'
loop_
_symmetry_equiv_pos_as_xyz
x,y,z

loop_
_atom_site_label
_atom_site_type_symbol
_atom_site_occupancy
_atom_site_fract_x
_atom_site_fract_y
_atom_site_fract_z
_atom_site_U_iso_or_equiv
C1  C  1.0000  0.99898  0.19984  0.13268  0.0000
C2  C  1.0000  0.06584  0.13319  0.13184  0.0000
C3  C  1.0000  0.19761  0.19694  0.13755  0.0000
C4  C  1.0000  0.26380  0.12908  0.13845  0.0000
C5  C  1.0000  0.39564  0.19613  0.14320  0.0000
C6  C  1.0000  0.46475  0.13120  0.14216  0.0000
C7  C  1.0000  0.59776  0.20162  0.14317  0.0000
C8  C  1.0000  0.66612  0.13579  0.13813  0.0000
C9  C  1.0000  0.79891  0.20307  0.13643  0.0000
C10  C  1.0000  0.86660  0.13641  0.13167  0.0000
C11  C  1.0000  0.99658  0.39939  0.14061  0.0000
C12  C  1.0000  0.06321  0.33147  0.13788  0.0000
C13  C  1.0000  0.19474  0.39442  0.14402  0.0000
C14  C  1.0000  0.26180  0.32719  0.14576  0.0000
C15  C  1.0000  0.45872  0.32740  0.15307  0.0000
C16  C  1.0000  0.65826  0.33454  0.14907  0.0000
C17  C  1.0000  0.79439  0.40439  0.14562  0.0000
C18  C  1.0000  0.86287  0.33651  0.14065  0.0000
C19  C  1.0000  0.00141  0.60053  0.14173  0.0000
C20  C  1.0000  0.06745  0.53224  0.14354  0.0000
C21  C  1.0000  0.20185  0.59381  0.14807  0.0000
C22  C  1.0000  0.86671  0.53881  0.14376  0.0000
C23  C  1.0000  0.00392  0.80138  0.13487  0.0000
C24  C  1.0000  0.07085  0.73335  0.13954  0.0000
C25  C  1.0000  0.20459  0.79631  0.14155  0.0000
C26  C  1.0000  0.27336  0.72846  0.14653  0.0000
C27  C  1.0000  0.40865  0.79768  0.14662  0.0000
C28  C  1.0000  0.61038  0.80751  0.13914  0.0000
C29  C  1.0000  0.80416  0.80540  0.13178  0.0000
C30  C  1.0000  0.87096  0.73601  0.13570  0.0000
C31  C  1.0000  0.00261  0.00110  0.12980  0.0000
C32  C  1.0000  0.06848  0.93324  0.13241  0.0000
C33  C  1.0000  0.20095  0.99725  0.13601  0.0000
C34  C  1.0000  0.26841  0.93005  0.13940  0.0000
C35  C  1.0000  0.40077  0.99732  0.14065  0.0000
C36  C  1.0000  0.46919  0.93081  0.14119  0.0000
C37  C  1.0000  0.60220  0.00265  0.13715  0.0000
C38  C  1.0000  0.67109  0.93872  0.13287  0.0000
C39  C  1.0000  0.80342  0.00431  0.12937  0.0000
C40  C  1.0000  0.87074  0.93742  0.12900  0.0000
N1  N  1.0000  0.58582  0.39218  0.15844  0.0000
N2  N  1.0000  0.80601  0.60744  0.14400  0.0000
N3  N  1.0000  0.67485  0.74460  0.13597  0.0000
N4  N  1.0000  0.39070  0.39219  0.16114  0.0000
N5  N  1.0000  0.26066  0.52283  0.15304  0.0000
N6  N  1.0000  0.48313  0.73912  0.15373  0.0000
Re1  Re  1.0000  0.42887  0.56537  0.19129  0.0000
Y1  Y  1.0000  0.63828  0.58451  0.20170  0.0000
