data_CNReZn
_audit_creation_method           'pos2cif.pl'
_cell_length_a               12.3170003891
_cell_length_b               12.3170003891315
_cell_length_c               20
_cell_angle_alpha            90
_cell_angle_beta             90
_cell_angle_gamma            120.010002136348
_symmetry_space_group_H-M        'P1'
_symmetry_Int_Tables_number      '1'
_symmetry_cell_setting           'triclinic'
loop_
_symmetry_equiv_pos_as_xyz
x,y,z

loop_
_atom_site_label
_atom_site_type_symbol
_atom_site_occupancy
_atom_site_fract_x
_atom_site_fract_y
_atom_site_fract_z
_atom_site_U_iso_or_equiv
C1  C  1.0000  0.00002  0.20038  0.14161  0.0000
C2  C  1.0000  0.06351  0.13078  0.13877  0.0000
C3  C  1.0000  0.19606  0.19479  0.14003  0.0000
C4  C  1.0000  0.26170  0.12723  0.13592  0.0000
C5  C  1.0000  0.39392  0.19446  0.13727  0.0000
C6  C  1.0000  0.46427  0.13198  0.13560  0.0000
C7  C  1.0000  0.59764  0.20198  0.13900  0.0000
C8  C  1.0000  0.66726  0.13854  0.13719  0.0000
C9  C  1.0000  0.80032  0.20478  0.14141  0.0000
C10  C  1.0000  0.86807  0.13795  0.13926  0.0000
C11  C  1.0000  0.99899  0.40031  0.14896  0.0000
C12  C  1.0000  0.06570  0.33239  0.14640  0.0000
C13  C  1.0000  0.19795  0.39496  0.14898  0.0000
C14  C  1.0000  0.26298  0.32603  0.14633  0.0000
C15  C  1.0000  0.45812  0.32511  0.14578  0.0000
C16  C  1.0000  0.65846  0.33353  0.14809  0.0000
C17  C  1.0000  0.79494  0.40424  0.15180  0.0000
C18  C  1.0000  0.86463  0.33764  0.14780  0.0000
C19  C  1.0000  0.00238  0.60044  0.14877  0.0000
C20  C  1.0000  0.07074  0.53324  0.14931  0.0000
C21  C  1.0000  0.20658  0.59512  0.14843  0.0000
C22  C  1.0000  0.86704  0.53878  0.15401  0.0000
C23  C  1.0000  0.99948  0.79926  0.14052  0.0000
C24  C  1.0000  0.06858  0.73273  0.14369  0.0000
C25  C  1.0000  0.20257  0.79613  0.13981  0.0000
C26  C  1.0000  0.27285  0.72966  0.14173  0.0000
C27  C  1.0000  0.40708  0.80347  0.13575  0.0000
C28  C  1.0000  0.61018  0.81646  0.13328  0.0000
C29  C  1.0000  0.79456  0.79883  0.13893  0.0000
C30  C  1.0000  0.86597  0.73358  0.14561  0.0000
C31  C  1.0000  0.99789  0.99768  0.13642  0.0000
C32  C  1.0000  0.06461  0.93090  0.13585  0.0000
C33  C  1.0000  0.19751  0.99520  0.13449  0.0000
C34  C  1.0000  0.26608  0.92957  0.13504  0.0000
C35  C  1.0000  0.39922  0.99909  0.13369  0.0000
C36  C  1.0000  0.46884  0.93587  0.13319  0.0000
C37  C  1.0000  0.60222  0.00688  0.13356  0.0000
C38  C  1.0000  0.67284  0.94506  0.13389  0.0000
C39  C  1.0000  0.80404  0.00627  0.13596  0.0000
C40  C  1.0000  0.86486  0.93291  0.13651  0.0000
N1  N  1.0000  0.58424  0.38730  0.15393  0.0000
N2  N  1.0000  0.80694  0.60764  0.15862  0.0000
N3  N  1.0000  0.66245  0.74082  0.13570  0.0000
N4  N  1.0000  0.39419  0.39225  0.15007  0.0000
N5  N  1.0000  0.26916  0.52470  0.15307  0.0000
N6  N  1.0000  0.48144  0.74925  0.13485  0.0000
Re1  Re  1.0000  0.46149  0.58345  0.15293  0.0000
Zn1  Zn  1.0000  0.63644  0.55155  0.19413  0.0000
