data_CNReZr
_audit_creation_method           'pos2cif.pl'
_cell_length_a               12.3170003891
_cell_length_b               12.3170003891315
_cell_length_c               20
_cell_angle_alpha            90
_cell_angle_beta             90
_cell_angle_gamma            120.010002136348
_symmetry_space_group_H-M        'P1'
_symmetry_Int_Tables_number      '1'
_symmetry_cell_setting           'triclinic'
loop_
_symmetry_equiv_pos_as_xyz
x,y,z

loop_
_atom_site_label
_atom_site_type_symbol
_atom_site_occupancy
_atom_site_fract_x
_atom_site_fract_y
_atom_site_fract_z
_atom_site_U_iso_or_equiv
C1  C  1.0000  -0.00126  0.20007  0.13071  0.0000
C2  C  1.0000  0.06556  0.13314  0.12873  0.0000
C3  C  1.0000  0.19732  0.19654  0.13401  0.0000
C4  C  1.0000  0.26363  0.12871  0.13583  0.0000
C5  C  1.0000  0.39526  0.19537  0.14162  0.0000
C6  C  1.0000  0.46468  0.13092  0.14170  0.0000
C7  C  1.0000  0.59750  0.20218  0.14376  0.0000
C8  C  1.0000  0.66595  0.13624  0.13901  0.0000
C9  C  1.0000  0.79877  0.20362  0.13666  0.0000
C10  C  1.0000  0.86643  0.13683  0.13131  0.0000
C11  C  1.0000  0.99624  0.39969  0.13995  0.0000
C12  C  1.0000  0.06285  0.33173  0.13605  0.0000
C13  C  1.0000  0.19484  0.39493  0.14154  0.0000
C14  C  1.0000  0.26079  0.32620  0.14310  0.0000
C15  C  1.0000  0.45671  0.32593  0.15262  0.0000
C16  C  1.0000  0.65785  0.33556  0.14980  0.0000
C17  C  1.0000  0.79345  0.40492  0.14593  0.0000
C18  C  1.0000  0.86220  0.33689  0.14054  0.0000
C19  C  1.0000  0.00065  0.60078  0.14259  0.0000
C20  C  1.0000  0.06701  0.53246  0.14376  0.0000
C21  C  1.0000  0.20166  0.59322  0.14746  0.0000
C22  C  1.0000  0.86576  0.53957  0.14409  0.0000
C23  C  1.0000  0.00431  0.80140  0.13474  0.0000
C24  C  1.0000  0.07095  0.73342  0.13975  0.0000
C25  C  1.0000  0.20500  0.79615  0.14171  0.0000
C26  C  1.0000  0.27390  0.72833  0.14726  0.0000
C27  C  1.0000  0.40918  0.79753  0.14890  0.0000
C28  C  1.0000  0.61135  0.80850  0.14399  0.0000
C29  C  1.0000  0.80592  0.80695  0.13467  0.0000
C30  C  1.0000  0.87149  0.73680  0.13625  0.0000
C31  C  1.0000  0.00290  0.00127  0.12790  0.0000
C32  C  1.0000  0.06868  0.93319  0.13112  0.0000
C33  C  1.0000  0.20099  0.99685  0.13431  0.0000
C34  C  1.0000  0.26851  0.92972  0.13883  0.0000
C35  C  1.0000  0.40104  0.99705  0.14043  0.0000
C36  C  1.0000  0.46952  0.93075  0.14243  0.0000
C37  C  1.0000  0.60238  0.00305  0.13862  0.0000
C38  C  1.0000  0.67147  0.93884  0.13504  0.0000
C39  C  1.0000  0.80362  0.00472  0.13022  0.0000
C40  C  1.0000  0.87117  0.93815  0.12927  0.0000
N1  N  1.0000  0.58414  0.39302  0.15953  0.0000
N2  N  1.0000  0.80452  0.60813  0.14363  0.0000
N3  N  1.0000  0.67777  0.74633  0.14379  0.0000
N4  N  1.0000  0.38803  0.38860  0.16066  0.0000
N5  N  1.0000  0.26108  0.52286  0.14929  0.0000
N6  N  1.0000  0.48440  0.73983  0.15852  0.0000
Re1  Re  1.0000  0.43588  0.56291  0.19062  0.0000
Zr1  Zr  1.0000  0.63496  0.58130  0.19965  0.0000
