data_CNRh
_audit_creation_method           'pos2cif.pl'
_cell_length_a               12.3170003891
_cell_length_b               12.3170003891315
_cell_length_c               20
_cell_angle_alpha            90
_cell_angle_beta             90
_cell_angle_gamma            120.010002136348
_symmetry_space_group_H-M        'P1'
_symmetry_Int_Tables_number      '1'
_symmetry_cell_setting           'triclinic'
loop_
_symmetry_equiv_pos_as_xyz
x,y,z

loop_
_atom_site_label
_atom_site_type_symbol
_atom_site_occupancy
_atom_site_fract_x
_atom_site_fract_y
_atom_site_fract_z
_atom_site_U_iso_or_equiv
C1  C  1.0000  0.99916  0.20053  0.14297  0.0000
C2  C  1.0000  0.06509  0.13262  0.14168  0.0000
C3  C  1.0000  0.19672  0.19506  0.13645  0.0000
C4  C  1.0000  0.26268  0.12706  0.13617  0.0000
C5  C  1.0000  0.39415  0.19272  0.13522  0.0000
C6  C  1.0000  0.46427  0.12996  0.13946  0.0000
C7  C  1.0000  0.59711  0.20128  0.14134  0.0000
C8  C  1.0000  0.66657  0.13707  0.14444  0.0000
C9  C  1.0000  0.79933  0.20492  0.14528  0.0000
C10  C  1.0000  0.86745  0.13851  0.14643  0.0000
C11  C  1.0000  0.99684  0.40058  0.14222  0.0000
C12  C  1.0000  0.06343  0.33226  0.14026  0.0000
C13  C  1.0000  0.19532  0.39478  0.13503  0.0000
C14  C  1.0000  0.26244  0.32590  0.13183  0.0000
C15  C  1.0000  0.45582  0.32446  0.13376  0.0000
C16  C  1.0000  0.65701  0.33477  0.14312  0.0000
C17  C  1.0000  0.79298  0.40544  0.14544  0.0000
C18  C  1.0000  0.86249  0.33843  0.14432  0.0000
C19  C  1.0000  0.00011  0.60091  0.14445  0.0000
C20  C  1.0000  0.06727  0.53288  0.14162  0.0000
C21  C  1.0000  0.20337  0.59357  0.13885  0.0000
C22  C  1.0000  0.86401  0.54024  0.14729  0.0000
C23  C  1.0000  0.00392  0.80152  0.14609  0.0000
C24  C  1.0000  0.07051  0.73319  0.14393  0.0000
C25  C  1.0000  0.20486  0.79538  0.14185  0.0000
C26  C  1.0000  0.27438  0.72839  0.14071  0.0000
C27  C  1.0000  0.41037  0.79906  0.14307  0.0000
C28  C  1.0000  0.61155  0.80935  0.15268  0.0000
C29  C  1.0000  0.80489  0.80786  0.15466  0.0000
C30  C  1.0000  0.87203  0.73902  0.15129  0.0000
C31  C  1.0000  0.00232  0.00117  0.14505  0.0000
C32  C  1.0000  0.06822  0.93324  0.14365  0.0000
C33  C  1.0000  0.19994  0.99530  0.14008  0.0000
C34  C  1.0000  0.26806  0.92888  0.14097  0.0000
C35  C  1.0000  0.40084  0.99674  0.14157  0.0000
C36  C  1.0000  0.47029  0.93256  0.14463  0.0000
C37  C  1.0000  0.60312  0.00386  0.14656  0.0000
C38  C  1.0000  0.67320  0.94110  0.15107  0.0000
C39  C  1.0000  0.80469  0.00674  0.15031  0.0000
C40  C  1.0000  0.87066  0.93874  0.15015  0.0000
N1  N  1.0000  0.58299  0.39060  0.14387  0.0000
N2  N  1.0000  0.80527  0.61109  0.15239  0.0000
N3  N  1.0000  0.67609  0.74483  0.16016  0.0000
N4  N  1.0000  0.39124  0.38895  0.12640  0.0000
N5  N  1.0000  0.26215  0.52272  0.13384  0.0000
N6  N  1.0000  0.48438  0.74320  0.14258  0.0000
Rh1  Rh  1.0000  0.44211  0.57196  0.12337  0.0000
Rh2  Rh  1.0000  0.62534  0.56175  0.16335  0.0000
