data_CNRhRu
_audit_creation_method           'pos2cif.pl'
_cell_length_a               12.3170003891
_cell_length_b               12.3170003891315
_cell_length_c               20
_cell_angle_alpha            90
_cell_angle_beta             90
_cell_angle_gamma            120.010002136348
_symmetry_space_group_H-M        'P1'
_symmetry_Int_Tables_number      '1'
_symmetry_cell_setting           'triclinic'
loop_
_symmetry_equiv_pos_as_xyz
x,y,z

loop_
_atom_site_label
_atom_site_type_symbol
_atom_site_occupancy
_atom_site_fract_x
_atom_site_fract_y
_atom_site_fract_z
_atom_site_U_iso_or_equiv
C1  C  1.0000  0.99997  0.20126  0.14146  0.0000
C2  C  1.0000  0.06572  0.13325  0.14073  0.0000
C3  C  1.0000  0.19712  0.19529  0.14115  0.0000
C4  C  1.0000  0.26247  0.12666  0.14128  0.0000
C5  C  1.0000  0.39371  0.19121  0.14233  0.0000
C6  C  1.0000  0.46431  0.12902  0.14293  0.0000
C7  C  1.0000  0.59732  0.20002  0.14351  0.0000
C8  C  1.0000  0.66703  0.13665  0.14331  0.0000
C9  C  1.0000  0.79983  0.20508  0.14295  0.0000
C10  C  1.0000  0.86812  0.13906  0.14194  0.0000
C11  C  1.0000  0.99734  0.40099  0.14347  0.0000
C12  C  1.0000  0.06416  0.33271  0.14254  0.0000
C13  C  1.0000  0.19631  0.39546  0.14304  0.0000
C14  C  1.0000  0.26347  0.32659  0.14249  0.0000
C15  C  1.0000  0.45484  0.32182  0.14338  0.0000
C16  C  1.0000  0.65793  0.33251  0.14408  0.0000
C17  C  1.0000  0.79366  0.40549  0.14418  0.0000
C18  C  1.0000  0.86322  0.33857  0.14353  0.0000
C19  C  1.0000  -0.00101  0.60083  0.14407  0.0000
C20  C  1.0000  0.06688  0.53320  0.14405  0.0000
C21  C  1.0000  0.20280  0.59413  0.14422  0.0000
C22  C  1.0000  0.86318  0.53984  0.14432  0.0000
C23  C  1.0000  0.00321  0.80152  0.14242  0.0000
C24  C  1.0000  0.06984  0.73311  0.14331  0.0000
C25  C  1.0000  0.20400  0.79525  0.14330  0.0000
C26  C  1.0000  0.27364  0.72837  0.14413  0.0000
C27  C  1.0000  0.40980  0.80002  0.14427  0.0000
C28  C  1.0000  0.61323  0.81148  0.14413  0.0000
C29  C  1.0000  0.80497  0.80846  0.14299  0.0000
C30  C  1.0000  0.87129  0.73950  0.14320  0.0000
C31  C  1.0000  0.00253  0.00149  0.14077  0.0000
C32  C  1.0000  0.06784  0.93314  0.14120  0.0000
C33  C  1.0000  0.19963  0.99509  0.14135  0.0000
C34  C  1.0000  0.26764  0.92870  0.14249  0.0000
C35  C  1.0000  0.40046  0.99640  0.14301  0.0000
C36  C  1.0000  0.47024  0.93286  0.14371  0.0000
C37  C  1.0000  0.60325  0.00394  0.14344  0.0000
C38  C  1.0000  0.67420  0.94223  0.14318  0.0000
C39  C  1.0000  0.80547  0.00760  0.14205  0.0000
C40  C  1.0000  0.87114  0.93950  0.14164  0.0000
N1  N  1.0000  0.58407  0.38746  0.14456  0.0000
N2  N  1.0000  0.80252  0.61129  0.14438  0.0000
N3  N  1.0000  0.67641  0.74534  0.14440  0.0000
N4  N  1.0000  0.39203  0.38811  0.14359  0.0000
N5  N  1.0000  0.26233  0.52328  0.14415  0.0000
N6  N  1.0000  0.48444  0.74596  0.14482  0.0000
Rh1  Rh  1.0000  0.44462  0.57565  0.14479  0.0000
Ru1  Ru  1.0000  0.61985  0.55575  0.14570  0.0000
