data_CNRhSc
_audit_creation_method           'pos2cif.pl'
_cell_length_a               12.3170003891
_cell_length_b               12.3170003891315
_cell_length_c               20
_cell_angle_alpha            90
_cell_angle_beta             90
_cell_angle_gamma            120.010002136348
_symmetry_space_group_H-M        'P1'
_symmetry_Int_Tables_number      '1'
_symmetry_cell_setting           'triclinic'
loop_
_symmetry_equiv_pos_as_xyz
x,y,z

loop_
_atom_site_label
_atom_site_type_symbol
_atom_site_occupancy
_atom_site_fract_x
_atom_site_fract_y
_atom_site_fract_z
_atom_site_U_iso_or_equiv
C1  C  1.0000  0.00066  0.20021  0.14124  0.0000
C2  C  1.0000  0.06529  0.13168  0.13963  0.0000
C3  C  1.0000  0.19797  0.19638  0.13831  0.0000
C4  C  1.0000  0.26324  0.12806  0.13688  0.0000
C5  C  1.0000  0.39534  0.19467  0.13652  0.0000
C6  C  1.0000  0.46515  0.13175  0.13824  0.0000
C7  C  1.0000  0.59885  0.20206  0.13969  0.0000
C8  C  1.0000  0.66794  0.13756  0.14090  0.0000
C9  C  1.0000  0.80062  0.20392  0.14227  0.0000
C10  C  1.0000  0.86821  0.13670  0.14157  0.0000
C11  C  1.0000  -0.00078  0.40020  0.14437  0.0000
C12  C  1.0000  0.06608  0.33208  0.14254  0.0000
C13  C  1.0000  0.19866  0.39580  0.14158  0.0000
C14  C  1.0000  0.26542  0.32833  0.13873  0.0000
C15  C  1.0000  0.45929  0.32663  0.13657  0.0000
C16  C  1.0000  0.66044  0.33438  0.14242  0.0000
C17  C  1.0000  0.79586  0.40428  0.14653  0.0000
C18  C  1.0000  0.86522  0.33717  0.14445  0.0000
C19  C  1.0000  0.00101  0.60007  0.14654  0.0000
C20  C  1.0000  0.06894  0.53272  0.14470  0.0000
C21  C  1.0000  0.20520  0.59499  0.14357  0.0000
C22  C  1.0000  0.86610  0.53843  0.15027  0.0000
C23  C  1.0000  0.00073  0.79965  0.14310  0.0000
C24  C  1.0000  0.06936  0.73323  0.14451  0.0000
C25  C  1.0000  0.20286  0.79637  0.14238  0.0000
C26  C  1.0000  0.27286  0.72961  0.14296  0.0000
C27  C  1.0000  0.40786  0.80278  0.14264  0.0000
C28  C  1.0000  0.60882  0.81218  0.14614  0.0000
C29  C  1.0000  0.79920  0.80097  0.14408  0.0000
C30  C  1.0000  0.86722  0.73439  0.14749  0.0000
C31  C  1.0000  -0.00010  -0.00132  0.13965  0.0000
C32  C  1.0000  0.06599  0.93144  0.13954  0.0000
C33  C  1.0000  0.19897  0.99590  0.13829  0.0000
C34  C  1.0000  0.26719  0.93016  0.13985  0.0000
C35  C  1.0000  0.40029  -0.00083  0.13970  0.0000
C36  C  1.0000  0.46986  0.93540  0.14150  0.0000
C37  C  1.0000  0.60269  0.00485  0.14152  0.0000
C38  C  1.0000  0.67268  0.94179  0.14328  0.0000
C39  C  1.0000  0.80448  0.00530  0.14178  0.0000
C40  C  1.0000  0.86714  0.93388  0.14117  0.0000
N1  N  1.0000  0.58785  0.39226  0.14241  0.0000
N2  N  1.0000  0.80305  0.60552  0.15699  0.0000
N3  N  1.0000  0.66548  0.73799  0.15013  0.0000
N4  N  1.0000  0.39719  0.39369  0.13508  0.0000
N5  N  1.0000  0.26519  0.52461  0.14276  0.0000
N6  N  1.0000  0.48213  0.74917  0.14353  0.0000
Rh1  Rh  1.0000  0.44889  0.58152  0.13469  0.0000
Sc1  Sc  1.0000  0.61443  0.55260  0.18922  0.0000
