data_CNRhTa
_audit_creation_method           'pos2cif.pl'
_cell_length_a               12.3170003891
_cell_length_b               12.3170003891315
_cell_length_c               20
_cell_angle_alpha            90
_cell_angle_beta             90
_cell_angle_gamma            120.010002136348
_symmetry_space_group_H-M        'P1'
_symmetry_Int_Tables_number      '1'
_symmetry_cell_setting           'triclinic'
loop_
_symmetry_equiv_pos_as_xyz
x,y,z

loop_
_atom_site_label
_atom_site_type_symbol
_atom_site_occupancy
_atom_site_fract_x
_atom_site_fract_y
_atom_site_fract_z
_atom_site_U_iso_or_equiv
C1  C  1.0000  -0.00021  0.20085  0.14032  0.0000
C2  C  1.0000  0.06561  0.13308  0.13862  0.0000
C3  C  1.0000  0.19678  0.19541  0.13169  0.0000
C4  C  1.0000  0.26286  0.12698  0.13207  0.0000
C5  C  1.0000  0.39452  0.19167  0.13106  0.0000
C6  C  1.0000  0.46473  0.12926  0.13643  0.0000
C7  C  1.0000  0.59828  0.20144  0.13879  0.0000
C8  C  1.0000  0.66723  0.13676  0.14376  0.0000
C9  C  1.0000  0.79969  0.20471  0.14445  0.0000
C10  C  1.0000  0.86814  0.13835  0.14634  0.0000
C11  C  1.0000  0.99678  0.40063  0.14069  0.0000
C12  C  1.0000  0.06365  0.33223  0.13704  0.0000
C13  C  1.0000  0.19547  0.39583  0.13181  0.0000
C14  C  1.0000  0.26172  0.32596  0.12747  0.0000
C15  C  1.0000  0.45597  0.32296  0.12837  0.0000
C16  C  1.0000  0.65896  0.33388  0.13959  0.0000
C17  C  1.0000  0.79367  0.40559  0.14424  0.0000
C18  C  1.0000  0.86303  0.33798  0.14289  0.0000
C19  C  1.0000  -0.00203  0.60067  0.14625  0.0000
C20  C  1.0000  0.06530  0.53287  0.14164  0.0000
C21  C  1.0000  0.20112  0.59368  0.13865  0.0000
C22  C  1.0000  0.86287  0.53986  0.14924  0.0000
C23  C  1.0000  0.00380  0.80179  0.14871  0.0000
C24  C  1.0000  0.07045  0.73366  0.14602  0.0000
C25  C  1.0000  0.20431  0.79545  0.14250  0.0000
C26  C  1.0000  0.27419  0.72824  0.14122  0.0000
C27  C  1.0000  0.41073  0.79848  0.14373  0.0000
C28  C  1.0000  0.61266  0.81142  0.15708  0.0000
C29  C  1.0000  0.80926  0.81043  0.16041  0.0000
C30  C  1.0000  0.87208  0.73990  0.15564  0.0000
C31  C  1.0000  0.00351  0.00208  0.14503  0.0000
C32  C  1.0000  0.06840  0.93337  0.14373  0.0000
C33  C  1.0000  0.20018  0.99556  0.13795  0.0000
C34  C  1.0000  0.26825  0.92915  0.13981  0.0000
C35  C  1.0000  0.40116  0.99656  0.13979  0.0000
C36  C  1.0000  0.47077  0.93189  0.14438  0.0000
C37  C  1.0000  0.60346  0.00374  0.14723  0.0000
C38  C  1.0000  0.67417  0.94184  0.15445  0.0000
C39  C  1.0000  0.80632  0.00786  0.15330  0.0000
C40  C  1.0000  0.87298  0.94042  0.15370  0.0000
N1  N  1.0000  0.58502  0.39156  0.13821  0.0000
N2  N  1.0000  0.80037  0.60942  0.15723  0.0000
N3  N  1.0000  0.67941  0.74760  0.16809  0.0000
N4  N  1.0000  0.39178  0.38645  0.12172  0.0000
N5  N  1.0000  0.25951  0.52413  0.13259  0.0000
N6  N  1.0000  0.48700  0.74369  0.14543  0.0000
Rh1  Rh  1.0000  0.44626  0.56880  0.12672  0.0000
Ta1  Ta  1.0000  0.60689  0.55701  0.17585  0.0000
