data_CNRhTc
_audit_creation_method           'pos2cif.pl'
_cell_length_a               12.3170003891
_cell_length_b               12.3170003891315
_cell_length_c               20
_cell_angle_alpha            90
_cell_angle_beta             90
_cell_angle_gamma            120.010002136348
_symmetry_space_group_H-M        'P1'
_symmetry_Int_Tables_number      '1'
_symmetry_cell_setting           'triclinic'
loop_
_symmetry_equiv_pos_as_xyz
x,y,z

loop_
_atom_site_label
_atom_site_type_symbol
_atom_site_occupancy
_atom_site_fract_x
_atom_site_fract_y
_atom_site_fract_z
_atom_site_U_iso_or_equiv
C1  C  1.0000  -0.00010  0.20135  0.14190  0.0000
C2  C  1.0000  0.06580  0.13358  0.14150  0.0000
C3  C  1.0000  0.19702  0.19537  0.14182  0.0000
C4  C  1.0000  0.26228  0.12655  0.14178  0.0000
C5  C  1.0000  0.39332  0.19049  0.14239  0.0000
C6  C  1.0000  0.46416  0.12851  0.14268  0.0000
C7  C  1.0000  0.59725  0.19962  0.14303  0.0000
C8  C  1.0000  0.66698  0.13639  0.14271  0.0000
C9  C  1.0000  0.79970  0.20506  0.14260  0.0000
C10  C  1.0000  0.86813  0.13920  0.14204  0.0000
C11  C  1.0000  0.99698  0.40091  0.14310  0.0000
C12  C  1.0000  0.06382  0.33264  0.14260  0.0000
C13  C  1.0000  0.19581  0.39552  0.14302  0.0000
C14  C  1.0000  0.26290  0.32646  0.14278  0.0000
C15  C  1.0000  0.45413  0.32067  0.14346  0.0000
C16  C  1.0000  0.65792  0.33187  0.14397  0.0000
C17  C  1.0000  0.79347  0.40547  0.14391  0.0000
C18  C  1.0000  0.86302  0.33850  0.14315  0.0000
C19  C  1.0000  -0.00134  0.60089  0.14357  0.0000
C20  C  1.0000  0.06624  0.53315  0.14347  0.0000
C21  C  1.0000  0.20198  0.59385  0.14364  0.0000
C22  C  1.0000  0.86318  0.54009  0.14409  0.0000
C23  C  1.0000  0.00385  0.80204  0.14248  0.0000
C24  C  1.0000  0.07014  0.73340  0.14303  0.0000
C25  C  1.0000  0.20414  0.79520  0.14302  0.0000
C26  C  1.0000  0.27375  0.72820  0.14361  0.0000
C27  C  1.0000  0.41003  0.79945  0.14380  0.0000
C28  C  1.0000  0.61402  0.81217  0.14418  0.0000
C29  C  1.0000  0.80655  0.80972  0.14338  0.0000
C30  C  1.0000  0.87222  0.74049  0.14329  0.0000
C31  C  1.0000  0.00307  0.00207  0.14146  0.0000
C32  C  1.0000  0.06818  0.93353  0.14173  0.0000
C33  C  1.0000  0.19978  0.99513  0.14181  0.0000
C34  C  1.0000  0.26773  0.92863  0.14249  0.0000
C35  C  1.0000  0.40052  0.99608  0.14273  0.0000
C36  C  1.0000  0.47036  0.93240  0.14321  0.0000
C37  C  1.0000  0.60326  0.00375  0.14286  0.0000
C38  C  1.0000  0.67454  0.94250  0.14292  0.0000
C39  C  1.0000  0.80584  0.00798  0.14220  0.0000
C40  C  1.0000  0.87196  0.94041  0.14206  0.0000
N1  N  1.0000  0.58346  0.38641  0.14516  0.0000
N2  N  1.0000  0.80292  0.61205  0.14455  0.0000
N3  N  1.0000  0.67796  0.74692  0.14513  0.0000
N4  N  1.0000  0.39151  0.38693  0.14362  0.0000
N5  N  1.0000  0.26093  0.52326  0.14367  0.0000
N6  N  1.0000  0.48534  0.74565  0.14446  0.0000
Rh1  Rh  1.0000  0.44539  0.57424  0.14445  0.0000
Tc1  Tc  1.0000  0.61692  0.55641  0.14746  0.0000
