data_CNRhTi
_audit_creation_method           'pos2cif.pl'
_cell_length_a               12.3170003891
_cell_length_b               12.3170003891315
_cell_length_c               20
_cell_angle_alpha            90
_cell_angle_beta             90
_cell_angle_gamma            120.010002136348
_symmetry_space_group_H-M        'P1'
_symmetry_Int_Tables_number      '1'
_symmetry_cell_setting           'triclinic'
loop_
_symmetry_equiv_pos_as_xyz
x,y,z

loop_
_atom_site_label
_atom_site_type_symbol
_atom_site_occupancy
_atom_site_fract_x
_atom_site_fract_y
_atom_site_fract_z
_atom_site_U_iso_or_equiv
C1  C  1.0000  -0.00050  0.20063  0.14004  0.0000
C2  C  1.0000  0.06543  0.13276  0.13873  0.0000
C3  C  1.0000  0.19689  0.19535  0.13314  0.0000
C4  C  1.0000  0.26297  0.12706  0.13362  0.0000
C5  C  1.0000  0.39463  0.19180  0.13279  0.0000
C6  C  1.0000  0.46473  0.12948  0.13775  0.0000
C7  C  1.0000  0.59799  0.20175  0.13992  0.0000
C8  C  1.0000  0.66695  0.13728  0.14390  0.0000
C9  C  1.0000  0.79961  0.20479  0.14400  0.0000
C10  C  1.0000  0.86788  0.13827  0.14501  0.0000
C11  C  1.0000  0.99664  0.40043  0.14083  0.0000
C12  C  1.0000  0.06335  0.33206  0.13764  0.0000
C13  C  1.0000  0.19568  0.39625  0.13377  0.0000
C14  C  1.0000  0.26263  0.32623  0.12983  0.0000
C15  C  1.0000  0.45683  0.32327  0.13056  0.0000
C16  C  1.0000  0.65822  0.33498  0.14053  0.0000
C17  C  1.0000  0.79331  0.40537  0.14413  0.0000
C18  C  1.0000  0.86262  0.33799  0.14285  0.0000
C19  C  1.0000  -0.00109  0.60079  0.14516  0.0000
C20  C  1.0000  0.06550  0.53277  0.14155  0.0000
C21  C  1.0000  0.20097  0.59311  0.13972  0.0000
C22  C  1.0000  0.86352  0.54046  0.14794  0.0000
C23  C  1.0000  0.00363  0.80145  0.14719  0.0000
C24  C  1.0000  0.07032  0.73341  0.14505  0.0000
C25  C  1.0000  0.20482  0.79558  0.14254  0.0000
C26  C  1.0000  0.27428  0.72833  0.14199  0.0000
C27  C  1.0000  0.41077  0.79851  0.14424  0.0000
C28  C  1.0000  0.61282  0.81194  0.15556  0.0000
C29  C  1.0000  0.80673  0.80874  0.15728  0.0000
C30  C  1.0000  0.87123  0.73790  0.15327  0.0000
C31  C  1.0000  0.00300  0.00150  0.14390  0.0000
C32  C  1.0000  0.06828  0.93312  0.14306  0.0000
C33  C  1.0000  0.20010  0.99546  0.13855  0.0000
C34  C  1.0000  0.26822  0.92910  0.14037  0.0000
C35  C  1.0000  0.40110  0.99656  0.14071  0.0000
C36  C  1.0000  0.47045  0.93206  0.14474  0.0000
C37  C  1.0000  0.60334  0.00428  0.14706  0.0000
C38  C  1.0000  0.67407  0.94258  0.15297  0.0000
C39  C  1.0000  0.80574  0.00740  0.15093  0.0000
C40  C  1.0000  0.87192  0.93922  0.15104  0.0000
N1  N  1.0000  0.58528  0.39264  0.13858  0.0000
N2  N  1.0000  0.80278  0.60901  0.15449  0.0000
N3  N  1.0000  0.67791  0.74792  0.16393  0.0000
N4  N  1.0000  0.39200  0.38624  0.12559  0.0000
N5  N  1.0000  0.25910  0.52366  0.13572  0.0000
N6  N  1.0000  0.48673  0.74394  0.14565  0.0000
Rh1  Rh  1.0000  0.45045  0.56820  0.13185  0.0000
Ti1  Ti  1.0000  0.60717  0.55953  0.17228  0.0000
