data_CNRhV
_audit_creation_method           'pos2cif.pl'
_cell_length_a               12.3170003891
_cell_length_b               12.3170003891315
_cell_length_c               20
_cell_angle_alpha            90
_cell_angle_beta             90
_cell_angle_gamma            120.010002136348
_symmetry_space_group_H-M        'P1'
_symmetry_Int_Tables_number      '1'
_symmetry_cell_setting           'triclinic'
loop_
_symmetry_equiv_pos_as_xyz
x,y,z

loop_
_atom_site_label
_atom_site_type_symbol
_atom_site_occupancy
_atom_site_fract_x
_atom_site_fract_y
_atom_site_fract_z
_atom_site_U_iso_or_equiv
C1  C  1.0000  0.00024  0.20045  0.14031  0.0000
C2  C  1.0000  0.06550  0.13236  0.13896  0.0000
C3  C  1.0000  0.19775  0.19615  0.13783  0.0000
C4  C  1.0000  0.26310  0.12777  0.13711  0.0000
C5  C  1.0000  0.39490  0.19362  0.13718  0.0000
C6  C  1.0000  0.46480  0.13075  0.13894  0.0000
C7  C  1.0000  0.59830  0.20118  0.14019  0.0000
C8  C  1.0000  0.66746  0.13700  0.14113  0.0000
C9  C  1.0000  0.80024  0.20424  0.14186  0.0000
C10  C  1.0000  0.86810  0.13754  0.14108  0.0000
C11  C  1.0000  0.99824  0.40029  0.14361  0.0000
C12  C  1.0000  0.06500  0.33216  0.14151  0.0000
C13  C  1.0000  0.19738  0.39563  0.14073  0.0000
C14  C  1.0000  0.26465  0.32783  0.13826  0.0000
C15  C  1.0000  0.45764  0.32529  0.13796  0.0000
C16  C  1.0000  0.65961  0.33343  0.14301  0.0000
C17  C  1.0000  0.79481  0.40444  0.14606  0.0000
C18  C  1.0000  0.86419  0.33745  0.14376  0.0000
C19  C  1.0000  -0.00013  0.60029  0.14638  0.0000
C20  C  1.0000  0.06764  0.53277  0.14459  0.0000
C21  C  1.0000  0.20366  0.59441  0.14384  0.0000
C22  C  1.0000  0.86453  0.53887  0.14928  0.0000
C23  C  1.0000  0.00158  0.80032  0.14322  0.0000
C24  C  1.0000  0.06938  0.73312  0.14447  0.0000
C25  C  1.0000  0.20331  0.79590  0.14299  0.0000
C26  C  1.0000  0.27311  0.72915  0.14409  0.0000
C27  C  1.0000  0.40863  0.80146  0.14486  0.0000
C28  C  1.0000  0.61080  0.81171  0.14808  0.0000
C29  C  1.0000  0.80189  0.80445  0.14617  0.0000
C30  C  1.0000  0.86883  0.73643  0.14735  0.0000
C31  C  1.0000  0.00121  -0.00002  0.13963  0.0000
C32  C  1.0000  0.06683  0.93221  0.13988  0.0000
C33  C  1.0000  0.19928  0.99563  0.13872  0.0000
C34  C  1.0000  0.26733  0.92959  0.14058  0.0000
C35  C  1.0000  0.40040  0.99808  0.14051  0.0000
C36  C  1.0000  0.46988  0.93423  0.14281  0.0000
C37  C  1.0000  0.60289  0.00430  0.14231  0.0000
C38  C  1.0000  0.67319  0.94178  0.14393  0.0000
C39  C  1.0000  0.80483  0.00607  0.14205  0.0000
C40  C  1.0000  0.86904  0.93631  0.14192  0.0000
N1  N  1.0000  0.58682  0.39057  0.14434  0.0000
N2  N  1.0000  0.80233  0.60737  0.15402  0.0000
N3  N  1.0000  0.67114  0.74220  0.15218  0.0000
N4  N  1.0000  0.39519  0.39169  0.13645  0.0000
N5  N  1.0000  0.26289  0.52383  0.14236  0.0000
N6  N  1.0000  0.48297  0.74744  0.14718  0.0000
Rh1  Rh  1.0000  0.44685  0.57851  0.13997  0.0000
V1  V  1.0000  0.61880  0.55488  0.16827  0.0000
