data_CNRhW
_audit_creation_method           'pos2cif.pl'
_cell_length_a               12.3170003891
_cell_length_b               12.3170003891315
_cell_length_c               20
_cell_angle_alpha            90
_cell_angle_beta             90
_cell_angle_gamma            120.010002136348
_symmetry_space_group_H-M        'P1'
_symmetry_Int_Tables_number      '1'
_symmetry_cell_setting           'triclinic'
loop_
_symmetry_equiv_pos_as_xyz
x,y,z

loop_
_atom_site_label
_atom_site_type_symbol
_atom_site_occupancy
_atom_site_fract_x
_atom_site_fract_y
_atom_site_fract_z
_atom_site_U_iso_or_equiv
C1  C  1.0000  0.99915  0.20072  0.13309  0.0000
C2  C  1.0000  0.06497  0.13283  0.13010  0.0000
C3  C  1.0000  0.19659  0.19526  0.12790  0.0000
C4  C  1.0000  0.26273  0.12691  0.12869  0.0000
C5  C  1.0000  0.39414  0.19149  0.13161  0.0000
C6  C  1.0000  0.46424  0.12886  0.13672  0.0000
C7  C  1.0000  0.59768  0.20122  0.14026  0.0000
C8  C  1.0000  0.66680  0.13653  0.14160  0.0000
C9  C  1.0000  0.79930  0.20486  0.14060  0.0000
C10  C  1.0000  0.86762  0.13839  0.13833  0.0000
C11  C  1.0000  0.99625  0.40062  0.14067  0.0000
C12  C  1.0000  0.06288  0.33220  0.13491  0.0000
C13  C  1.0000  0.19478  0.39578  0.13436  0.0000
C14  C  1.0000  0.26154  0.32609  0.13053  0.0000
C15  C  1.0000  0.45422  0.32233  0.13566  0.0000
C16  C  1.0000  0.65806  0.33318  0.14500  0.0000
C17  C  1.0000  0.79314  0.40572  0.14758  0.0000
C18  C  1.0000  0.86240  0.33817  0.14241  0.0000
C19  C  1.0000  -0.00204  0.60072  0.14830  0.0000
C20  C  1.0000  0.06513  0.53269  0.14419  0.0000
C21  C  1.0000  0.20088  0.59327  0.14356  0.0000
C22  C  1.0000  0.86325  0.54016  0.15239  0.0000
C23  C  1.0000  0.00419  0.80217  0.14387  0.0000
C24  C  1.0000  0.07053  0.73366  0.14541  0.0000
C25  C  1.0000  0.20439  0.79525  0.14296  0.0000
C26  C  1.0000  0.27399  0.72785  0.14570  0.0000
C27  C  1.0000  0.41056  0.79841  0.14858  0.0000
C28  C  1.0000  0.61452  0.81218  0.15752  0.0000
C29  C  1.0000  0.80952  0.81125  0.15439  0.0000
C30  C  1.0000  0.87323  0.74136  0.15195  0.0000
C31  C  1.0000  0.00282  0.00157  0.13473  0.0000
C32  C  1.0000  0.06825  0.93320  0.13591  0.0000
C33  C  1.0000  0.20006  0.99505  0.13271  0.0000
C34  C  1.0000  0.26806  0.92873  0.13783  0.0000
C35  C  1.0000  0.40101  0.99625  0.13915  0.0000
C36  C  1.0000  0.47054  0.93167  0.14494  0.0000
C37  C  1.0000  0.60332  0.00343  0.14494  0.0000
C38  C  1.0000  0.67469  0.94182  0.14944  0.0000
C39  C  1.0000  0.80612  0.00772  0.14399  0.0000
C40  C  1.0000  0.87249  0.94033  0.14361  0.0000
N1  N  1.0000  0.58280  0.38949  0.14972  0.0000
N2  N  1.0000  0.80271  0.61227  0.15919  0.0000
N3  N  1.0000  0.68172  0.74865  0.16649  0.0000
N4  N  1.0000  0.39074  0.38639  0.13346  0.0000
N5  N  1.0000  0.25897  0.52300  0.13971  0.0000
N6  N  1.0000  0.48644  0.74405  0.15441  0.0000
Rh1  Rh  1.0000  0.44738  0.56931  0.14561  0.0000
W1  W  1.0000  0.61429  0.55810  0.17725  0.0000
