data_CNRhY
_audit_creation_method           'pos2cif.pl'
_cell_length_a               12.3170003891
_cell_length_b               12.3170003891315
_cell_length_c               20
_cell_angle_alpha            90
_cell_angle_beta             90
_cell_angle_gamma            120.010002136348
_symmetry_space_group_H-M        'P1'
_symmetry_Int_Tables_number      '1'
_symmetry_cell_setting           'triclinic'
loop_
_symmetry_equiv_pos_as_xyz
x,y,z

loop_
_atom_site_label
_atom_site_type_symbol
_atom_site_occupancy
_atom_site_fract_x
_atom_site_fract_y
_atom_site_fract_z
_atom_site_U_iso_or_equiv
C1  C  1.0000  0.00065  0.20008  0.14125  0.0000
C2  C  1.0000  0.06514  0.13143  0.13974  0.0000
C3  C  1.0000  0.19782  0.19617  0.13878  0.0000
C4  C  1.0000  0.26325  0.12806  0.13701  0.0000
C5  C  1.0000  0.39536  0.19476  0.13670  0.0000
C6  C  1.0000  0.46521  0.13192  0.13790  0.0000
C7  C  1.0000  0.59896  0.20222  0.13946  0.0000
C8  C  1.0000  0.66808  0.13773  0.13999  0.0000
C9  C  1.0000  0.80071  0.20380  0.14169  0.0000
C10  C  1.0000  0.86823  0.13653  0.14100  0.0000
C11  C  1.0000  -0.00061  0.40012  0.14419  0.0000
C12  C  1.0000  0.06610  0.33193  0.14259  0.0000
C13  C  1.0000  0.19865  0.39561  0.14184  0.0000
C14  C  1.0000  0.26527  0.32809  0.13976  0.0000
C15  C  1.0000  0.45957  0.32675  0.13781  0.0000
C16  C  1.0000  0.66053  0.33442  0.14312  0.0000
C17  C  1.0000  0.79616  0.40415  0.14694  0.0000
C18  C  1.0000  0.86545  0.33700  0.14435  0.0000
C19  C  1.0000  0.00156  0.60005  0.14618  0.0000
C20  C  1.0000  0.06936  0.53276  0.14432  0.0000
C21  C  1.0000  0.20545  0.59509  0.14298  0.0000
C22  C  1.0000  0.86689  0.53822  0.15043  0.0000
C23  C  1.0000  0.00077  0.79966  0.14296  0.0000
C24  C  1.0000  0.06945  0.73324  0.14412  0.0000
C25  C  1.0000  0.20283  0.79644  0.14165  0.0000
C26  C  1.0000  0.27281  0.72969  0.14197  0.0000
C27  C  1.0000  0.40771  0.80314  0.14112  0.0000
C28  C  1.0000  0.60840  0.81261  0.14389  0.0000
C29  C  1.0000  0.79859  0.80011  0.14326  0.0000
C30  C  1.0000  0.86710  0.73394  0.14746  0.0000
C31  C  1.0000  -0.00040  -0.00162  0.13950  0.0000
C32  C  1.0000  0.06594  0.93134  0.13934  0.0000
C33  C  1.0000  0.19897  0.99593  0.13804  0.0000
C34  C  1.0000  0.26722  0.93024  0.13920  0.0000
C35  C  1.0000  0.40027  0.99937  0.13881  0.0000
C36  C  1.0000  0.46988  0.93567  0.14003  0.0000
C37  C  1.0000  0.60272  0.00514  0.13997  0.0000
C38  C  1.0000  0.67260  0.94207  0.14143  0.0000
C39  C  1.0000  0.80444  0.00512  0.14075  0.0000
C40  C  1.0000  0.86683  0.93338  0.14059  0.0000
N1  N  1.0000  0.58782  0.39227  0.14418  0.0000
N2  N  1.0000  0.80428  0.60531  0.15777  0.0000
N3  N  1.0000  0.66425  0.73776  0.14839  0.0000
N4  N  1.0000  0.39719  0.39374  0.13728  0.0000
N5  N  1.0000  0.26541  0.52458  0.14228  0.0000
N6  N  1.0000  0.48190  0.74954  0.14170  0.0000
Rh1  Rh  1.0000  0.44809  0.58166  0.13486  0.0000
Y1  Y  1.0000  0.61416  0.55391  0.20333  0.0000
