data_CNRhZn
_audit_creation_method           'pos2cif.pl'
_cell_length_a               12.3170003891
_cell_length_b               12.3170003891315
_cell_length_c               20
_cell_angle_alpha            90
_cell_angle_beta             90
_cell_angle_gamma            120.010002136348
_symmetry_space_group_H-M        'P1'
_symmetry_Int_Tables_number      '1'
_symmetry_cell_setting           'triclinic'
loop_
_symmetry_equiv_pos_as_xyz
x,y,z

loop_
_atom_site_label
_atom_site_type_symbol
_atom_site_occupancy
_atom_site_fract_x
_atom_site_fract_y
_atom_site_fract_z
_atom_site_U_iso_or_equiv
C1  C  1.0000  0.99897  0.19958  0.14245  0.0000
C2  C  1.0000  0.06399  0.13125  0.14218  0.0000
C3  C  1.0000  0.19629  0.19525  0.14214  0.0000
C4  C  1.0000  0.26234  0.12764  0.14207  0.0000
C5  C  1.0000  0.39368  0.19393  0.14236  0.0000
C6  C  1.0000  0.46434  0.13163  0.14276  0.0000
C7  C  1.0000  0.59759  0.20190  0.14307  0.0000
C8  C  1.0000  0.66670  0.13739  0.14295  0.0000
C9  C  1.0000  0.79947  0.20401  0.14293  0.0000
C10  C  1.0000  0.86697  0.13673  0.14256  0.0000
C11  C  1.0000  0.99766  0.39990  0.14320  0.0000
C12  C  1.0000  0.06392  0.33153  0.14279  0.0000
C13  C  1.0000  0.19616  0.39480  0.14280  0.0000
C14  C  1.0000  0.26304  0.32676  0.14244  0.0000
C15  C  1.0000  0.45559  0.32542  0.14287  0.0000
C16  C  1.0000  0.65841  0.33507  0.14371  0.0000
C17  C  1.0000  0.79441  0.40482  0.14387  0.0000
C18  C  1.0000  0.86338  0.33722  0.14333  0.0000
C19  C  1.0000  0.00275  0.60059  0.14339  0.0000
C20  C  1.0000  0.06910  0.53249  0.14335  0.0000
C21  C  1.0000  0.20484  0.59388  0.14346  0.0000
C22  C  1.0000  0.86785  0.53946  0.14398  0.0000
C23  C  1.0000  0.00369  0.80159  0.14264  0.0000
C24  C  1.0000  0.07056  0.73342  0.14303  0.0000
C25  C  1.0000  0.20425  0.79630  0.14306  0.0000
C26  C  1.0000  0.27341  0.72924  0.14353  0.0000
C27  C  1.0000  0.40818  0.80197  0.14382  0.0000
C28  C  1.0000  0.60850  0.81083  0.14391  0.0000
C29  C  1.0000  0.80008  0.80189  0.14299  0.0000
C30  C  1.0000  0.87127  0.73706  0.14322  0.0000
C31  C  1.0000  -0.00012  -0.00111  0.14217  0.0000
C32  C  1.0000  0.06736  0.93278  0.14220  0.0000
C33  C  1.0000  0.19943  0.99596  0.14222  0.0000
C34  C  1.0000  0.26755  0.93000  0.14271  0.0000
C35  C  1.0000  0.40037  0.99882  0.14291  0.0000
C36  C  1.0000  0.46963  0.93486  0.14335  0.0000
C37  C  1.0000  0.60232  0.00460  0.14308  0.0000
C38  C  1.0000  0.67214  0.94115  0.14311  0.0000
C39  C  1.0000  0.80361  0.00501  0.14258  0.0000
C40  C  1.0000  0.86725  0.93449  0.14243  0.0000
N1  N  1.0000  0.58320  0.38966  0.14417  0.0000
N2  N  1.0000  0.80986  0.60939  0.14452  0.0000
N3  N  1.0000  0.66728  0.73887  0.14407  0.0000
N4  N  1.0000  0.39284  0.39183  0.14261  0.0000
N5  N  1.0000  0.26365  0.52295  0.14330  0.0000
N6  N  1.0000  0.48177  0.74743  0.14432  0.0000
Rh1  Rh  1.0000  0.44539  0.57865  0.14318  0.0000
Zn1  Zn  1.0000  0.63612  0.56228  0.14816  0.0000
