data_CNRhZr
_audit_creation_method           'pos2cif.pl'
_cell_length_a               12.3170003891
_cell_length_b               12.3170003891315
_cell_length_c               20
_cell_angle_alpha            90
_cell_angle_beta             90
_cell_angle_gamma            120.010002136348
_symmetry_space_group_H-M        'P1'
_symmetry_Int_Tables_number      '1'
_symmetry_cell_setting           'triclinic'
loop_
_symmetry_equiv_pos_as_xyz
x,y,z

loop_
_atom_site_label
_atom_site_type_symbol
_atom_site_occupancy
_atom_site_fract_x
_atom_site_fract_y
_atom_site_fract_z
_atom_site_U_iso_or_equiv
C1  C  1.0000  -0.00018  0.20060  0.14018  0.0000
C2  C  1.0000  0.06571  0.13276  0.13870  0.0000
C3  C  1.0000  0.19729  0.19569  0.13298  0.0000
C4  C  1.0000  0.26309  0.12720  0.13287  0.0000
C5  C  1.0000  0.39487  0.19217  0.13101  0.0000
C6  C  1.0000  0.46515  0.12987  0.13570  0.0000
C7  C  1.0000  0.59844  0.20142  0.13778  0.0000
C8  C  1.0000  0.66737  0.13720  0.14302  0.0000
C9  C  1.0000  0.80003  0.20470  0.14365  0.0000
C10  C  1.0000  0.86811  0.13813  0.14520  0.0000
C11  C  1.0000  -0.00284  0.40049  0.14087  0.0000
C12  C  1.0000  0.06379  0.33208  0.13774  0.0000
C13  C  1.0000  0.19601  0.39611  0.13381  0.0000
C14  C  1.0000  0.26303  0.32671  0.12991  0.0000
C15  C  1.0000  0.45753  0.32359  0.12788  0.0000
C16  C  1.0000  0.65923  0.33454  0.13795  0.0000
C17  C  1.0000  0.79409  0.40523  0.14345  0.0000
C18  C  1.0000  0.86332  0.33785  0.14247  0.0000
C19  C  1.0000  -0.00067  0.60075  0.14564  0.0000
C20  C  1.0000  0.06590  0.53291  0.14162  0.0000
C21  C  1.0000  0.20136  0.59357  0.13951  0.0000
C22  C  1.0000  0.86403  0.53994  0.14890  0.0000
C23  C  1.0000  0.00332  0.80131  0.14766  0.0000
C24  C  1.0000  0.07031  0.73353  0.14545  0.0000
C25  C  1.0000  0.20465  0.79585  0.14235  0.0000
C26  C  1.0000  0.27427  0.72874  0.14161  0.0000
C27  C  1.0000  0.41060  0.79932  0.14373  0.0000
C28  C  1.0000  0.61236  0.81240  0.15662  0.0000
C29  C  1.0000  0.80648  0.80849  0.15863  0.0000
C30  C  1.0000  0.87092  0.73759  0.15486  0.0000
C31  C  1.0000  0.00284  0.00133  0.14393  0.0000
C32  C  1.0000  0.06807  0.93292  0.14294  0.0000
C33  C  1.0000  0.20001  0.99562  0.13798  0.0000
C34  C  1.0000  0.26823  0.92937  0.13969  0.0000
C35  C  1.0000  0.40121  0.99704  0.13955  0.0000
C36  C  1.0000  0.47065  0.93280  0.14417  0.0000
C37  C  1.0000  0.60348  0.00450  0.14694  0.0000
C38  C  1.0000  0.67402  0.94271  0.15402  0.0000
C39  C  1.0000  0.80588  0.00733  0.15168  0.0000
C40  C  1.0000  0.87190  0.93912  0.15166  0.0000
N1  N  1.0000  0.58648  0.39193  0.13401  0.0000
N2  N  1.0000  0.80319  0.60823  0.15750  0.0000
N3  N  1.0000  0.67754  0.74837  0.16602  0.0000
N4  N  1.0000  0.39324  0.38807  0.12453  0.0000
N5  N  1.0000  0.25926  0.52391  0.13554  0.0000
N6  N  1.0000  0.48661  0.74507  0.14486  0.0000
Rh1  Rh  1.0000  0.44618  0.57051  0.12969  0.0000
Zr1  Zr  1.0000  0.60067  0.55159  0.18548  0.0000
