data_CNRu
_audit_creation_method           'pos2cif.pl'
_cell_length_a               12.3170003891
_cell_length_b               12.3170003891315
_cell_length_c               20
_cell_angle_alpha            90
_cell_angle_beta             90
_cell_angle_gamma            120.010002136348
_symmetry_space_group_H-M        'P1'
_symmetry_Int_Tables_number      '1'
_symmetry_cell_setting           'triclinic'
loop_
_symmetry_equiv_pos_as_xyz
x,y,z

loop_
_atom_site_label
_atom_site_type_symbol
_atom_site_occupancy
_atom_site_fract_x
_atom_site_fract_y
_atom_site_fract_z
_atom_site_U_iso_or_equiv
C1  C  1.0000  0.99976  0.20110  0.14133  0.0000
C2  C  1.0000  0.06509  0.13268  0.14048  0.0000
C3  C  1.0000  0.19619  0.19416  0.14097  0.0000
C4  C  1.0000  0.26177  0.12587  0.14114  0.0000
C5  C  1.0000  0.39296  0.19064  0.14231  0.0000
C6  C  1.0000  0.46404  0.12905  0.14298  0.0000
C7  C  1.0000  0.59702  0.20076  0.14363  0.0000
C8  C  1.0000  0.66695  0.13740  0.14345  0.0000
C9  C  1.0000  0.79975  0.20543  0.14301  0.0000
C10  C  1.0000  0.86804  0.13933  0.14191  0.0000
C11  C  1.0000  0.99728  0.40084  0.14356  0.0000
C12  C  1.0000  0.06409  0.33250  0.14252  0.0000
C13  C  1.0000  0.19600  0.39463  0.14304  0.0000
C14  C  1.0000  0.26198  0.32513  0.14245  0.0000
C15  C  1.0000  0.45345  0.32095  0.14337  0.0000
C16  C  1.0000  0.65725  0.33350  0.14413  0.0000
C17  C  1.0000  0.79345  0.40585  0.14427  0.0000
C18  C  1.0000  0.86326  0.33887  0.14362  0.0000
C19  C  1.0000  -0.00030  0.60067  0.14418  0.0000
C20  C  1.0000  0.06770  0.53312  0.14421  0.0000
C21  C  1.0000  0.20367  0.59387  0.14435  0.0000
C22  C  1.0000  0.86371  0.53992  0.14440  0.0000
C23  C  1.0000  0.00327  0.80129  0.14239  0.0000
C24  C  1.0000  0.07009  0.73295  0.14337  0.0000
C25  C  1.0000  0.20411  0.79493  0.14335  0.0000
C26  C  1.0000  0.27391  0.72794  0.14423  0.0000
C27  C  1.0000  0.41011  0.80028  0.14434  0.0000
C28  C  1.0000  0.61392  0.81285  0.14415  0.0000
C29  C  1.0000  0.80540  0.80868  0.14298  0.0000
C30  C  1.0000  0.87137  0.73917  0.14324  0.0000
C31  C  1.0000  0.00228  0.00113  0.14055  0.0000
C32  C  1.0000  0.06761  0.93269  0.14102  0.0000
C33  C  1.0000  0.19933  0.99447  0.14121  0.0000
C34  C  1.0000  0.26761  0.92836  0.14247  0.0000
C35  C  1.0000  0.40042  0.99639  0.14306  0.0000
C36  C  1.0000  0.47034  0.93303  0.14381  0.0000
C37  C  1.0000  0.60332  0.00474  0.14359  0.0000
C38  C  1.0000  0.67442  0.94316  0.14327  0.0000
C39  C  1.0000  0.80561  0.00793  0.14205  0.0000
C40  C  1.0000  0.87120  0.93965  0.14157  0.0000
N1  N  1.0000  0.58261  0.38796  0.14440  0.0000
N2  N  1.0000  0.80340  0.61112  0.14443  0.0000
N3  N  1.0000  0.67713  0.74723  0.14429  0.0000
N4  N  1.0000  0.39026  0.38659  0.14363  0.0000
N5  N  1.0000  0.26400  0.52268  0.14426  0.0000
N6  N  1.0000  0.48476  0.74584  0.14485  0.0000
Ru1  Ru  1.0000  0.44970  0.57564  0.14500  0.0000
Ru2  Ru  1.0000  0.61772  0.55820  0.14511  0.0000
