data_CNRuSc
_audit_creation_method           'pos2cif.pl'
_cell_length_a               12.3170003891
_cell_length_b               12.3170003891315
_cell_length_c               20
_cell_angle_alpha            90
_cell_angle_beta             90
_cell_angle_gamma            120.010002136348
_symmetry_space_group_H-M        'P1'
_symmetry_Int_Tables_number      '1'
_symmetry_cell_setting           'triclinic'
loop_
_symmetry_equiv_pos_as_xyz
x,y,z

loop_
_atom_site_label
_atom_site_type_symbol
_atom_site_occupancy
_atom_site_fract_x
_atom_site_fract_y
_atom_site_fract_z
_atom_site_U_iso_or_equiv
C1  C  1.0000  0.00077  0.20025  0.14093  0.0000
C2  C  1.0000  0.06527  0.13147  0.13917  0.0000
C3  C  1.0000  0.19804  0.19606  0.13789  0.0000
C4  C  1.0000  0.26306  0.12750  0.13656  0.0000
C5  C  1.0000  0.39498  0.19420  0.13642  0.0000
C6  C  1.0000  0.46517  0.13170  0.13846  0.0000
C7  C  1.0000  0.59862  0.20210  0.14009  0.0000
C8  C  1.0000  0.66782  0.13791  0.14121  0.0000
C9  C  1.0000  0.80086  0.20439  0.14241  0.0000
C10  C  1.0000  0.86848  0.13720  0.14131  0.0000
C11  C  1.0000  0.99928  0.40025  0.14468  0.0000
C12  C  1.0000  0.06617  0.33226  0.14246  0.0000
C13  C  1.0000  0.19891  0.39591  0.14147  0.0000
C14  C  1.0000  0.26560  0.32788  0.13848  0.0000
C15  C  1.0000  0.45896  0.32595  0.13666  0.0000
C16  C  1.0000  0.66001  0.33485  0.14306  0.0000
C17  C  1.0000  0.79541  0.40435  0.14719  0.0000
C18  C  1.0000  0.86500  0.33739  0.14490  0.0000
C19  C  1.0000  0.00140  0.60008  0.14666  0.0000
C20  C  1.0000  0.06953  0.53280  0.14524  0.0000
C21  C  1.0000  0.20566  0.59436  0.14426  0.0000
C22  C  1.0000  0.86572  0.53876  0.15035  0.0000
C23  C  1.0000  0.00066  0.79930  0.14237  0.0000
C24  C  1.0000  0.06921  0.73270  0.14424  0.0000
C25  C  1.0000  0.20341  0.79602  0.14262  0.0000
C26  C  1.0000  0.27333  0.72955  0.14380  0.0000
C27  C  1.0000  0.40824  0.80319  0.14389  0.0000
C28  C  1.0000  0.60949  0.81319  0.14529  0.0000
C29  C  1.0000  0.79835  0.80061  0.14297  0.0000
C30  C  1.0000  0.86687  0.73354  0.14653  0.0000
C31  C  1.0000  -0.00007  -0.00146  0.13906  0.0000
C32  C  1.0000  0.06600  0.93117  0.13903  0.0000
C33  C  1.0000  0.19885  -0.00466  0.13806  0.0000
C34  C  1.0000  0.26722  0.92973  0.14002  0.0000
C35  C  1.0000  0.40043  0.99905  0.14013  0.0000
C36  C  1.0000  0.47002  0.93571  0.14236  0.0000
C37  C  1.0000  0.60293  0.00558  0.14181  0.0000
C38  C  1.0000  0.67303  0.94256  0.14258  0.0000
C39  C  1.0000  0.80458  0.00552  0.14102  0.0000
C40  C  1.0000  0.86706  0.93380  0.14028  0.0000
N1  N  1.0000  0.58735  0.39200  0.14300  0.0000
N2  N  1.0000  0.80316  0.60560  0.15569  0.0000
N3  N  1.0000  0.66575  0.73900  0.14807  0.0000
N4  N  1.0000  0.39728  0.39398  0.13521  0.0000
N5  N  1.0000  0.26657  0.52427  0.14304  0.0000
N6  N  1.0000  0.48233  0.74925  0.14449  0.0000
Ru1  Ru  1.0000  0.45288  0.58315  0.13551  0.0000
Sc1  Sc  1.0000  0.60740  0.55117  0.19099  0.0000
