data_CNRuTa
_audit_creation_method           'pos2cif.pl'
_cell_length_a               12.3170003891
_cell_length_b               12.3170003891315
_cell_length_c               20
_cell_angle_alpha            90
_cell_angle_beta             90
_cell_angle_gamma            120.010002136348
_symmetry_space_group_H-M        'P1'
_symmetry_Int_Tables_number      '1'
_symmetry_cell_setting           'triclinic'
loop_
_symmetry_equiv_pos_as_xyz
x,y,z

loop_
_atom_site_label
_atom_site_type_symbol
_atom_site_occupancy
_atom_site_fract_x
_atom_site_fract_y
_atom_site_fract_z
_atom_site_U_iso_or_equiv
C1  C  1.0000  -0.00059  0.20050  0.14038  0.0000
C2  C  1.0000  0.06516  0.13238  0.13858  0.0000
C3  C  1.0000  0.19600  0.19420  0.12999  0.0000
C4  C  1.0000  0.26223  0.12599  0.13028  0.0000
C5  C  1.0000  0.39396  0.19098  0.12841  0.0000
C6  C  1.0000  0.46460  0.12927  0.13540  0.0000
C7  C  1.0000  0.59789  0.20186  0.13850  0.0000
C8  C  1.0000  0.66704  0.13760  0.14466  0.0000
C9  C  1.0000  0.79973  0.20524  0.14535  0.0000
C10  C  1.0000  0.86804  0.13860  0.14759  0.0000
C11  C  1.0000  0.99683  0.40056  0.14067  0.0000
C12  C  1.0000  0.06322  0.33187  0.13651  0.0000
C13  C  1.0000  0.19538  0.39532  0.13115  0.0000
C14  C  1.0000  0.26108  0.32464  0.12478  0.0000
C15  C  1.0000  0.45520  0.32188  0.12471  0.0000
C16  C  1.0000  0.65806  0.33500  0.13881  0.0000
C17  C  1.0000  0.79311  0.40574  0.14378  0.0000
C18  C  1.0000  0.86273  0.33829  0.14307  0.0000
C19  C  1.0000  -0.00077  0.60076  0.14612  0.0000
C20  C  1.0000  0.06627  0.53285  0.14164  0.0000
C21  C  1.0000  0.20197  0.59304  0.13936  0.0000
C22  C  1.0000  0.86366  0.54061  0.14879  0.0000
C23  C  1.0000  0.00426  0.80170  0.14964  0.0000
C24  C  1.0000  0.07073  0.73335  0.14628  0.0000
C25  C  1.0000  0.20515  0.79532  0.14261  0.0000
C26  C  1.0000  0.27502  0.72822  0.14148  0.0000
C27  C  1.0000  0.41153  0.79900  0.14365  0.0000
C28  C  1.0000  0.61290  0.81270  0.15958  0.0000
C29  C  1.0000  0.80866  0.81024  0.16306  0.0000
C30  C  1.0000  0.87221  0.73892  0.15694  0.0000
C31  C  1.0000  0.00326  0.00169  0.14608  0.0000
C32  C  1.0000  0.06851  0.93311  0.14447  0.0000
C33  C  1.0000  0.20000  0.99496  0.13757  0.0000
C34  C  1.0000  0.26835  0.92874  0.13956  0.0000
C35  C  1.0000  0.40129  0.99657  0.13962  0.0000
C36  C  1.0000  0.47089  0.93230  0.14495  0.0000
C37  C  1.0000  0.60364  0.00482  0.14884  0.0000
C38  C  1.0000  0.67413  0.94307  0.15755  0.0000
C39  C  1.0000  0.80623  0.00820  0.15587  0.0000
C40  C  1.0000  0.87283  0.94026  0.15593  0.0000
N1  N  1.0000  0.58363  0.39179  0.13556  0.0000
N2  N  1.0000  0.80320  0.60977  0.15652  0.0000
N3  N  1.0000  0.67939  0.74954  0.17089  0.0000
N4  N  1.0000  0.39034  0.38521  0.11787  0.0000
N5  N  1.0000  0.26032  0.52307  0.13458  0.0000
N6  N  1.0000  0.48831  0.74436  0.14417  0.0000
Ru1  Ru  1.0000  0.44991  0.56941  0.12456  0.0000
Ta1  Ta  1.0000  0.60154  0.55761  0.17558  0.0000
