data_CNRuTc
_audit_creation_method           'pos2cif.pl'
_cell_length_a               12.3170003891
_cell_length_b               12.3170003891315
_cell_length_c               20
_cell_angle_alpha            90
_cell_angle_beta             90
_cell_angle_gamma            120.010002136348
_symmetry_space_group_H-M        'P1'
_symmetry_Int_Tables_number      '1'
_symmetry_cell_setting           'triclinic'
loop_
_symmetry_equiv_pos_as_xyz
x,y,z

loop_
_atom_site_label
_atom_site_type_symbol
_atom_site_occupancy
_atom_site_fract_x
_atom_site_fract_y
_atom_site_fract_z
_atom_site_U_iso_or_equiv
C1  C  1.0000  0.99921  0.20073  0.13490  0.0000
C2  C  1.0000  0.06451  0.13225  0.13280  0.0000
C3  C  1.0000  0.19584  0.19402  0.13030  0.0000
C4  C  1.0000  0.26182  0.12579  0.13096  0.0000
C5  C  1.0000  0.39316  0.19044  0.13262  0.0000
C6  C  1.0000  0.46399  0.12868  0.13692  0.0000
C7  C  1.0000  0.59713  0.20133  0.13990  0.0000
C8  C  1.0000  0.66677  0.13738  0.14178  0.0000
C9  C  1.0000  0.79951  0.20544  0.14098  0.0000
C10  C  1.0000  0.86785  0.13913  0.13959  0.0000
C11  C  1.0000  0.99677  0.40070  0.14083  0.0000
C12  C  1.0000  0.06331  0.33224  0.13616  0.0000
C13  C  1.0000  0.19523  0.39493  0.13607  0.0000
C14  C  1.0000  0.26098  0.32481  0.13249  0.0000
C15  C  1.0000  0.45310  0.32082  0.13593  0.0000
C16  C  1.0000  0.65708  0.33392  0.14344  0.0000
C17  C  1.0000  0.79307  0.40598  0.14583  0.0000
C18  C  1.0000  0.86269  0.33881  0.14207  0.0000
C19  C  1.0000  -0.00068  0.60071  0.14731  0.0000
C20  C  1.0000  0.06693  0.53291  0.14410  0.0000
C21  C  1.0000  0.20264  0.59316  0.14407  0.0000
C22  C  1.0000  0.86395  0.54047  0.14973  0.0000
C23  C  1.0000  0.00391  0.80179  0.14547  0.0000
C24  C  1.0000  0.07050  0.73326  0.14582  0.0000
C25  C  1.0000  0.20455  0.79493  0.14370  0.0000
C26  C  1.0000  0.27425  0.72769  0.14582  0.0000
C27  C  1.0000  0.41061  0.79922  0.14821  0.0000
C28  C  1.0000  0.61507  0.81384  0.15601  0.0000
C29  C  1.0000  0.80759  0.81034  0.15407  0.0000
C30  C  1.0000  0.87246  0.73994  0.15188  0.0000
C31  C  1.0000  0.00247  0.00125  0.13784  0.0000
C32  C  1.0000  0.06792  0.93284  0.13891  0.0000
C33  C  1.0000  0.19947  0.99430  0.13523  0.0000
C34  C  1.0000  0.26783  0.92822  0.13923  0.0000
C35  C  1.0000  0.40074  0.99604  0.13966  0.0000
C36  C  1.0000  0.47048  0.93221  0.14494  0.0000
C37  C  1.0000  0.60348  0.00467  0.14514  0.0000
C38  C  1.0000  0.67490  0.94354  0.14939  0.0000
C39  C  1.0000  0.80605  0.00818  0.14503  0.0000
C40  C  1.0000  0.87195  0.94015  0.14551  0.0000
N1  N  1.0000  0.58167  0.38895  0.14601  0.0000
N2  N  1.0000  0.80418  0.61169  0.15495  0.0000
N3  N  1.0000  0.67964  0.74961  0.16178  0.0000
N4  N  1.0000  0.38934  0.38530  0.13530  0.0000
N5  N  1.0000  0.26189  0.52236  0.14125  0.0000
N6  N  1.0000  0.48605  0.74468  0.15299  0.0000
Ru1  Ru  1.0000  0.45282  0.57269  0.14575  0.0000
Tc1  Tc  1.0000  0.61232  0.55882  0.16325  0.0000
