data_CNRuTi
_audit_creation_method           'pos2cif.pl'
_cell_length_a               12.3170003891
_cell_length_b               12.3170003891315
_cell_length_c               20
_cell_angle_alpha            90
_cell_angle_beta             90
_cell_angle_gamma            120.010002136348
_symmetry_space_group_H-M        'P1'
_symmetry_Int_Tables_number      '1'
_symmetry_cell_setting           'triclinic'
loop_
_symmetry_equiv_pos_as_xyz
x,y,z

loop_
_atom_site_label
_atom_site_type_symbol
_atom_site_occupancy
_atom_site_fract_x
_atom_site_fract_y
_atom_site_fract_z
_atom_site_U_iso_or_equiv
C1  C  1.0000  0.00068  0.20063  0.14247  0.0000
C2  C  1.0000  0.06574  0.13218  0.14109  0.0000
C3  C  1.0000  0.19800  0.19582  0.13855  0.0000
C4  C  1.0000  0.26302  0.12712  0.13724  0.0000
C5  C  1.0000  0.39482  0.19301  0.13625  0.0000
C6  C  1.0000  0.46515  0.13076  0.13891  0.0000
C7  C  1.0000  0.59860  0.20184  0.14041  0.0000
C8  C  1.0000  0.66781  0.13763  0.14321  0.0000
C9  C  1.0000  0.80068  0.20474  0.14422  0.0000
C10  C  1.0000  0.86852  0.13781  0.14434  0.0000
C11  C  1.0000  0.99869  0.40057  0.14406  0.0000
C12  C  1.0000  0.06559  0.33240  0.14246  0.0000
C13  C  1.0000  0.19823  0.39580  0.14060  0.0000
C14  C  1.0000  0.26483  0.32731  0.13720  0.0000
C15  C  1.0000  0.45800  0.32425  0.13404  0.0000
C16  C  1.0000  0.65973  0.33468  0.14141  0.0000
C17  C  1.0000  0.79475  0.40480  0.14544  0.0000
C18  C  1.0000  0.86445  0.33786  0.14463  0.0000
C19  C  1.0000  0.00014  0.60032  0.14543  0.0000
C20  C  1.0000  0.06824  0.53296  0.14372  0.0000
C21  C  1.0000  0.20439  0.59420  0.14230  0.0000
C22  C  1.0000  0.86429  0.53950  0.14850  0.0000
C23  C  1.0000  0.00160  0.79989  0.14383  0.0000
C24  C  1.0000  0.06950  0.73292  0.14388  0.0000
C25  C  1.0000  0.20382  0.79578  0.14195  0.0000
C26  C  1.0000  0.27378  0.72918  0.14196  0.0000
C27  C  1.0000  0.40926  0.80176  0.14238  0.0000
C28  C  1.0000  0.61103  0.81259  0.14949  0.0000
C29  C  1.0000  0.80215  0.80431  0.14820  0.0000
C30  C  1.0000  0.86832  0.73520  0.14835  0.0000
C31  C  1.0000  0.00140  -0.00015  0.14196  0.0000
C32  C  1.0000  0.06681  0.93177  0.14115  0.0000
C33  C  1.0000  0.19928  0.99518  0.13922  0.0000
C34  C  1.0000  0.26762  0.92934  0.14026  0.0000
C35  C  1.0000  0.40079  0.99810  0.14066  0.0000
C36  C  1.0000  0.47045  0.93455  0.14309  0.0000
C37  C  1.0000  0.60335  0.00507  0.14471  0.0000
C38  C  1.0000  0.67358  0.94229  0.14820  0.0000
C39  C  1.0000  0.80533  0.00647  0.14642  0.0000
C40  C  1.0000  0.86916  0.93620  0.14498  0.0000
N1  N  1.0000  0.58665  0.39165  0.13970  0.0000
N2  N  1.0000  0.80165  0.60670  0.15352  0.0000
N3  N  1.0000  0.67111  0.74209  0.15409  0.0000
N4  N  1.0000  0.39549  0.39108  0.13051  0.0000
N5  N  1.0000  0.26461  0.52408  0.14161  0.0000
N6  N  1.0000  0.48406  0.74764  0.14158  0.0000
Ru1  Ru  1.0000  0.45131  0.57920  0.12973  0.0000
Ti1  Ti  1.0000  0.60058  0.55208  0.17401  0.0000
