data_CNRuV
_audit_creation_method           'pos2cif.pl'
_cell_length_a               12.3170003891
_cell_length_b               12.3170003891315
_cell_length_c               20
_cell_angle_alpha            90
_cell_angle_beta             90
_cell_angle_gamma            120.010002136348
_symmetry_space_group_H-M        'P1'
_symmetry_Int_Tables_number      '1'
_symmetry_cell_setting           'triclinic'
loop_
_symmetry_equiv_pos_as_xyz
x,y,z

loop_
_atom_site_label
_atom_site_type_symbol
_atom_site_occupancy
_atom_site_fract_x
_atom_site_fract_y
_atom_site_fract_z
_atom_site_U_iso_or_equiv
C1  C  1.0000  0.00030  0.20053  0.14210  0.0000
C2  C  1.0000  0.06536  0.13220  0.14093  0.0000
C3  C  1.0000  0.19742  0.19541  0.13917  0.0000
C4  C  1.0000  0.26261  0.12693  0.13843  0.0000
C5  C  1.0000  0.39427  0.19263  0.13832  0.0000
C6  C  1.0000  0.46459  0.13034  0.14040  0.0000
C7  C  1.0000  0.59809  0.20150  0.14155  0.0000
C8  C  1.0000  0.66748  0.13743  0.14285  0.0000
C9  C  1.0000  0.80031  0.20464  0.14358  0.0000
C10  C  1.0000  0.86827  0.13798  0.14327  0.0000
C11  C  1.0000  0.99832  0.40044  0.14392  0.0000
C12  C  1.0000  0.06515  0.33223  0.14235  0.0000
C13  C  1.0000  0.19740  0.39518  0.14094  0.0000
C14  C  1.0000  0.26393  0.32676  0.13836  0.0000
C15  C  1.0000  0.45654  0.32373  0.13769  0.0000
C16  C  1.0000  0.65910  0.33389  0.14330  0.0000
C17  C  1.0000  0.79453  0.40473  0.14574  0.0000
C18  C  1.0000  0.86420  0.33786  0.14447  0.0000
C19  C  1.0000  -0.00010  0.60017  0.14521  0.0000
C20  C  1.0000  0.06812  0.53283  0.14391  0.0000
C21  C  1.0000  0.20410  0.59412  0.14271  0.0000
C22  C  1.0000  0.86441  0.53919  0.14767  0.0000
C23  C  1.0000  0.00169  0.80019  0.14335  0.0000
C24  C  1.0000  0.06942  0.73286  0.14371  0.0000
C25  C  1.0000  0.20348  0.79555  0.14240  0.0000
C26  C  1.0000  0.27342  0.72880  0.14266  0.0000
C27  C  1.0000  0.40894  0.80148  0.14336  0.0000
C28  C  1.0000  0.61162  0.81288  0.14790  0.0000
C29  C  1.0000  0.80269  0.80525  0.14657  0.0000
C30  C  1.0000  0.86889  0.73632  0.14678  0.0000
C31  C  1.0000  0.00143  0.00009  0.14156  0.0000
C32  C  1.0000  0.06683  0.93207  0.14113  0.0000
C33  C  1.0000  0.19911  0.99509  0.13989  0.0000
C34  C  1.0000  0.26735  0.92917  0.14106  0.0000
C35  C  1.0000  0.40041  0.99780  0.14150  0.0000
C36  C  1.0000  0.47008  0.93412  0.14327  0.0000
C37  C  1.0000  0.60309  0.00488  0.14372  0.0000
C38  C  1.0000  0.67364  0.94261  0.14566  0.0000
C39  C  1.0000  0.80522  0.00669  0.14440  0.0000
C40  C  1.0000  0.86939  0.93686  0.14375  0.0000
N1  N  1.0000  0.58562  0.39062  0.14373  0.0000
N2  N  1.0000  0.80192  0.60732  0.15115  0.0000
N3  N  1.0000  0.67190  0.74344  0.15162  0.0000
N4  N  1.0000  0.39420  0.39024  0.13452  0.0000
N5  N  1.0000  0.26441  0.52360  0.14176  0.0000
N6  N  1.0000  0.48362  0.74713  0.14374  0.0000
Ru1  Ru  1.0000  0.45110  0.57861  0.13481  0.0000
V1  V  1.0000  0.61315  0.55678  0.16108  0.0000
