data_CNRuW
_audit_creation_method           'pos2cif.pl'
_cell_length_a               12.3170003891
_cell_length_b               12.3170003891315
_cell_length_c               20
_cell_angle_alpha            90
_cell_angle_beta             90
_cell_angle_gamma            120.010002136348
_symmetry_space_group_H-M        'P1'
_symmetry_Int_Tables_number      '1'
_symmetry_cell_setting           'triclinic'
loop_
_symmetry_equiv_pos_as_xyz
x,y,z

loop_
_atom_site_label
_atom_site_type_symbol
_atom_site_occupancy
_atom_site_fract_x
_atom_site_fract_y
_atom_site_fract_z
_atom_site_U_iso_or_equiv
C1  C  1.0000  0.99924  0.20072  0.13749  0.0000
C2  C  1.0000  0.06455  0.13224  0.13523  0.0000
C3  C  1.0000  0.19532  0.19372  0.12698  0.0000
C4  C  1.0000  0.26186  0.12562  0.12788  0.0000
C5  C  1.0000  0.39356  0.19035  0.12802  0.0000
C6  C  1.0000  0.46412  0.12863  0.13561  0.0000
C7  C  1.0000  0.59748  0.20202  0.13932  0.0000
C8  C  1.0000  0.66684  0.13749  0.14400  0.0000
C9  C  1.0000  0.79942  0.20533  0.14405  0.0000
C10  C  1.0000  0.86801  0.13894  0.14524  0.0000
C11  C  1.0000  0.99658  0.40076  0.14017  0.0000
C12  C  1.0000  0.06328  0.33224  0.13491  0.0000
C13  C  1.0000  0.19526  0.39523  0.13081  0.0000
C14  C  1.0000  0.25995  0.32421  0.12377  0.0000
C15  C  1.0000  0.45392  0.32125  0.12735  0.0000
C16  C  1.0000  0.65737  0.33465  0.14161  0.0000
C17  C  1.0000  0.79273  0.40609  0.14512  0.0000
C18  C  1.0000  0.86255  0.33862  0.14267  0.0000
C19  C  1.0000  0.99858  0.60068  0.14690  0.0000
C20  C  1.0000  0.06621  0.53289  0.14244  0.0000
C21  C  1.0000  0.20224  0.59310  0.14100  0.0000
C22  C  1.0000  0.86326  0.54053  0.14949  0.0000
C23  C  1.0000  0.00426  0.80201  0.14939  0.0000
C24  C  1.0000  0.07075  0.73349  0.14671  0.0000
C25  C  1.0000  0.20469  0.79496  0.14326  0.0000
C26  C  1.0000  0.27472  0.72760  0.14323  0.0000
C27  C  1.0000  0.41122  0.79817  0.14560  0.0000
C28  C  1.0000  0.61385  0.81299  0.15988  0.0000
C29  C  1.0000  0.81014  0.81165  0.16292  0.0000
C30  C  1.0000  0.87269  0.74040  0.15692  0.0000
C31  C  1.0000  0.00322  0.00195  0.14382  0.0000
C32  C  1.0000  0.06836  0.93325  0.14294  0.0000
C33  C  1.0000  0.19974  0.99459  0.13570  0.0000
C34  C  1.0000  0.26813  0.92839  0.13905  0.0000
C35  C  1.0000  0.40108  0.99601  0.13939  0.0000
C36  C  1.0000  0.47082  0.93159  0.14526  0.0000
C37  C  1.0000  0.60355  0.00445  0.14802  0.0000
C38  C  1.0000  0.67473  0.94320  0.15592  0.0000
C39  C  1.0000  0.80662  0.00874  0.15381  0.0000
C40  C  1.0000  0.87324  0.94108  0.15467  0.0000
N1  N  1.0000  0.58129  0.39113  0.14254  0.0000
N2  N  1.0000  0.80180  0.61069  0.15662  0.0000
N3  N  1.0000  0.68048  0.74977  0.17109  0.0000
N4  N  1.0000  0.38944  0.38397  0.12002  0.0000
N5  N  1.0000  0.26152  0.52331  0.13603  0.0000
N6  N  1.0000  0.48784  0.74330  0.14801  0.0000
Ru1  Ru  1.0000  0.45317  0.56749  0.12956  0.0000
W1  W  1.0000  0.60734  0.56167  0.17149  0.0000
