data_CNRuY
_audit_creation_method           'pos2cif.pl'
_cell_length_a               12.3170003891
_cell_length_b               12.3170003891315
_cell_length_c               20
_cell_angle_alpha            90
_cell_angle_beta             90
_cell_angle_gamma            120.010002136348
_symmetry_space_group_H-M        'P1'
_symmetry_Int_Tables_number      '1'
_symmetry_cell_setting           'triclinic'
loop_
_symmetry_equiv_pos_as_xyz
x,y,z

loop_
_atom_site_label
_atom_site_type_symbol
_atom_site_occupancy
_atom_site_fract_x
_atom_site_fract_y
_atom_site_fract_z
_atom_site_U_iso_or_equiv
C1  C  1.0000  0.00062  0.20001  0.14098  0.0000
C2  C  1.0000  0.06511  0.13123  0.13937  0.0000
C3  C  1.0000  0.19784  0.19580  0.13832  0.0000
C4  C  1.0000  0.26316  0.12751  0.13685  0.0000
C5  C  1.0000  0.39508  0.19429  0.13681  0.0000
C6  C  1.0000  0.46529  0.13183  0.13832  0.0000
C7  C  1.0000  0.59874  0.20221  0.14000  0.0000
C8  C  1.0000  0.66789  0.13805  0.14030  0.0000
C9  C  1.0000  0.80086  0.20433  0.14195  0.0000
C10  C  1.0000  0.86840  0.13705  0.14077  0.0000
C11  C  1.0000  -0.00072  0.40013  0.14472  0.0000
C12  C  1.0000  0.06599  0.33203  0.14251  0.0000
C13  C  1.0000  0.19858  0.39560  0.14155  0.0000
C14  C  1.0000  0.26516  0.32745  0.13909  0.0000
C15  C  1.0000  0.45909  0.32615  0.13796  0.0000
C16  C  1.0000  0.66002  0.33486  0.14402  0.0000
C17  C  1.0000  0.79558  0.40424  0.14783  0.0000
C18  C  1.0000  0.86505  0.33725  0.14506  0.0000
C19  C  1.0000  0.00179  0.60007  0.14628  0.0000
C20  C  1.0000  0.06969  0.53275  0.14500  0.0000
C21  C  1.0000  0.20569  0.59436  0.14381  0.0000
C22  C  1.0000  0.86637  0.53870  0.15042  0.0000
C23  C  1.0000  0.00092  0.79937  0.14242  0.0000
C24  C  1.0000  0.06942  0.73272  0.14398  0.0000
C25  C  1.0000  0.20354  0.79608  0.14215  0.0000
C26  C  1.0000  0.27343  0.72961  0.14290  0.0000
C27  C  1.0000  0.40823  0.80339  0.14211  0.0000
C28  C  1.0000  0.60938  0.81351  0.14267  0.0000
C29  C  1.0000  0.79815  0.80023  0.14229  0.0000
C30  C  1.0000  0.86700  0.73338  0.14649  0.0000
C31  C  1.0000  -0.00014  -0.00166  0.13912  0.0000
C32  C  1.0000  0.06612  0.93112  0.13915  0.0000
C33  C  1.0000  0.19897  0.99538  0.13811  0.0000
C34  C  1.0000  0.26733  0.92979  0.13962  0.0000
C35  C  1.0000  0.40050  -0.00081  0.13933  0.0000
C36  C  1.0000  0.47005  0.93585  0.14069  0.0000
C37  C  1.0000  0.60296  0.00579  0.14002  0.0000
C38  C  1.0000  0.67300  0.94280  0.14047  0.0000
C39  C  1.0000  0.80458  0.00542  0.13990  0.0000
C40  C  1.0000  0.86706  0.93362  0.13979  0.0000
N1  N  1.0000  0.58728  0.39199  0.14510  0.0000
N2  N  1.0000  0.80417  0.60554  0.15603  0.0000
N3  N  1.0000  0.66530  0.73917  0.14614  0.0000
N4  N  1.0000  0.39686  0.39370  0.13669  0.0000
N5  N  1.0000  0.26639  0.52406  0.14287  0.0000
N6  N  1.0000  0.48225  0.74932  0.14217  0.0000
Ru1  Ru  1.0000  0.45096  0.58251  0.13542  0.0000
Y1  Y  1.0000  0.60804  0.55337  0.20443  0.0000
