data_CNRuZn
_audit_creation_method           'pos2cif.pl'
_cell_length_a               12.3170003891
_cell_length_b               12.3170003891315
_cell_length_c               20
_cell_angle_alpha            90
_cell_angle_beta             90
_cell_angle_gamma            120.010002136348
_symmetry_space_group_H-M        'P1'
_symmetry_Int_Tables_number      '1'
_symmetry_cell_setting           'triclinic'
loop_
_symmetry_equiv_pos_as_xyz
x,y,z

loop_
_atom_site_label
_atom_site_type_symbol
_atom_site_occupancy
_atom_site_fract_x
_atom_site_fract_y
_atom_site_fract_z
_atom_site_U_iso_or_equiv
C1  C  1.0000  -0.00070  0.19973  0.14095  0.0000
C2  C  1.0000  0.06389  0.13096  0.13843  0.0000
C3  C  1.0000  0.19622  0.19457  0.13751  0.0000
C4  C  1.0000  0.26223  0.12697  0.13616  0.0000
C5  C  1.0000  0.39385  0.19372  0.13774  0.0000
C6  C  1.0000  0.46436  0.13148  0.13953  0.0000
C7  C  1.0000  0.59756  0.20200  0.14237  0.0000
C8  C  1.0000  0.66694  0.13805  0.14251  0.0000
C9  C  1.0000  0.79985  0.20461  0.14378  0.0000
C10  C  1.0000  0.86756  0.13757  0.14165  0.0000
C11  C  1.0000  0.99791  0.40007  0.14554  0.0000
C12  C  1.0000  0.06418  0.33163  0.14286  0.0000
C13  C  1.0000  0.19608  0.39403  0.14205  0.0000
C14  C  1.0000  0.26284  0.32573  0.13951  0.0000
C15  C  1.0000  0.45652  0.32517  0.14130  0.0000
C16  C  1.0000  0.65803  0.33474  0.14693  0.0000
C17  C  1.0000  0.79423  0.40478  0.14944  0.0000
C18  C  1.0000  0.86360  0.33763  0.14659  0.0000
C19  C  1.0000  0.00214  0.60037  0.14615  0.0000
C20  C  1.0000  0.06940  0.53260  0.14546  0.0000
C21  C  1.0000  0.20521  0.59373  0.14436  0.0000
C22  C  1.0000  0.86684  0.53935  0.15054  0.0000
C23  C  1.0000  0.00220  0.80038  0.14073  0.0000
C24  C  1.0000  0.06986  0.73279  0.14288  0.0000
C25  C  1.0000  0.20393  0.79578  0.14139  0.0000
C26  C  1.0000  0.27366  0.72914  0.14323  0.0000
C27  C  1.0000  0.40857  0.80272  0.14356  0.0000
C28  C  1.0000  0.61070  0.81403  0.14390  0.0000
C29  C  1.0000  0.79886  0.80168  0.14166  0.0000
C30  C  1.0000  0.86948  0.73567  0.14489  0.0000
C31  C  1.0000  -0.00038  -0.00147  0.13798  0.0000
C32  C  1.0000  0.06650  0.93176  0.13734  0.0000
C33  C  1.0000  0.19883  0.99514  0.13663  0.0000
C34  C  1.0000  0.26720  0.92938  0.13876  0.0000
C35  C  1.0000  0.40010  0.99863  0.13966  0.0000
C36  C  1.0000  0.46968  0.93527  0.14189  0.0000
C37  C  1.0000  0.60259  0.00578  0.14195  0.0000
C38  C  1.0000  0.67310  0.94335  0.14212  0.0000
C39  C  1.0000  0.80433  0.00600  0.14072  0.0000
C40  C  1.0000  0.86712  0.93467  0.13959  0.0000
N1  N  1.0000  0.58330  0.38913  0.14872  0.0000
N2  N  1.0000  0.80806  0.60909  0.15408  0.0000
N3  N  1.0000  0.66787  0.74157  0.14345  0.0000
N4  N  1.0000  0.39310  0.39151  0.14047  0.0000
N5  N  1.0000  0.26519  0.52252  0.14402  0.0000
N6  N  1.0000  0.48293  0.74853  0.14539  0.0000
Ru1  Ru  1.0000  0.44899  0.57950  0.14100  0.0000
Zn1  Zn  1.0000  0.63254  0.55910  0.17459  0.0000
