data_CNRuZr
_audit_creation_method           'pos2cif.pl'
_cell_length_a               12.3170003891
_cell_length_b               12.3170003891315
_cell_length_c               20
_cell_angle_alpha            90
_cell_angle_beta             90
_cell_angle_gamma            120.010002136348
_symmetry_space_group_H-M        'P1'
_symmetry_Int_Tables_number      '1'
_symmetry_cell_setting           'triclinic'
loop_
_symmetry_equiv_pos_as_xyz
x,y,z

loop_
_atom_site_label
_atom_site_type_symbol
_atom_site_occupancy
_atom_site_fract_x
_atom_site_fract_y
_atom_site_fract_z
_atom_site_U_iso_or_equiv
C1  C  1.0000  0.00116  0.20069  0.14153  0.0000
C2  C  1.0000  0.06585  0.13206  0.13973  0.0000
C3  C  1.0000  0.19847  0.19623  0.13768  0.0000
C4  C  1.0000  0.26308  0.12725  0.13587  0.0000
C5  C  1.0000  0.39506  0.19317  0.13464  0.0000
C6  C  1.0000  0.46549  0.13107  0.13723  0.0000
C7  C  1.0000  0.59910  0.20162  0.13879  0.0000
C8  C  1.0000  0.66831  0.13759  0.14211  0.0000
C9  C  1.0000  0.80114  0.20459  0.14326  0.0000
C10  C  1.0000  0.86882  0.13745  0.14311  0.0000
C11  C  1.0000  0.99946  0.40068  0.14400  0.0000
C12  C  1.0000  0.06639  0.33254  0.14214  0.0000
C13  C  1.0000  0.19909  0.39606  0.14053  0.0000
C14  C  1.0000  0.26557  0.32792  0.13764  0.0000
C15  C  1.0000  0.45881  0.32417  0.13265  0.0000
C16  C  1.0000  0.66084  0.33409  0.14015  0.0000
C17  C  1.0000  0.79559  0.40462  0.14577  0.0000
C18  C  1.0000  0.86525  0.33759  0.14438  0.0000
C19  C  1.0000  0.00032  0.60024  0.14620  0.0000
C20  C  1.0000  0.06869  0.53305  0.14393  0.0000
C21  C  1.0000  0.20494  0.59486  0.14222  0.0000
C22  C  1.0000  0.86490  0.53902  0.15015  0.0000
C23  C  1.0000  0.00103  0.79959  0.14312  0.0000
C24  C  1.0000  0.06930  0.73306  0.14397  0.0000
C25  C  1.0000  0.20330  0.79618  0.14175  0.0000
C26  C  1.0000  0.27344  0.72971  0.14225  0.0000
C27  C  1.0000  0.40856  0.80303  0.14337  0.0000
C28  C  1.0000  0.61011  0.81363  0.15103  0.0000
C29  C  1.0000  0.80096  0.80293  0.14733  0.0000
C30  C  1.0000  0.86745  0.73478  0.14874  0.0000
C31  C  1.0000  0.00072  -0.00064  0.14006  0.0000
C32  C  1.0000  0.06618  0.93140  0.13945  0.0000
C33  C  1.0000  0.19895  0.99536  0.13776  0.0000
C34  C  1.0000  0.26729  0.92966  0.13938  0.0000
C35  C  1.0000  0.40064  0.99877  0.13975  0.0000
C36  C  1.0000  0.47045  0.93563  0.14314  0.0000
C37  C  1.0000  0.60324  0.00534  0.14440  0.0000
C38  C  1.0000  0.67354  0.94241  0.14822  0.0000
C39  C  1.0000  0.80545  0.00630  0.14516  0.0000
C40  C  1.0000  0.86823  0.93524  0.14325  0.0000
N1  N  1.0000  0.58759  0.39078  0.13775  0.0000
N2  N  1.0000  0.80158  0.60620  0.15700  0.0000
N3  N  1.0000  0.66873  0.74005  0.15606  0.0000
N4  N  1.0000  0.39766  0.39288  0.13133  0.0000
N5  N  1.0000  0.26553  0.52479  0.14102  0.0000
N6  N  1.0000  0.48334  0.74959  0.14362  0.0000
Ru1  Ru  1.0000  0.45143  0.58313  0.13043  0.0000
Zr1  Zr  1.0000  0.59598  0.54482  0.18892  0.0000
