data_CNSc
_audit_creation_method           'pos2cif.pl'
_cell_length_a               12.3170003891
_cell_length_b               12.3170003891315
_cell_length_c               20
_cell_angle_alpha            90
_cell_angle_beta             90
_cell_angle_gamma            120.010002136348
_symmetry_space_group_H-M        'P1'
_symmetry_Int_Tables_number      '1'
_symmetry_cell_setting           'triclinic'
loop_
_symmetry_equiv_pos_as_xyz
x,y,z

loop_
_atom_site_label
_atom_site_type_symbol
_atom_site_occupancy
_atom_site_fract_x
_atom_site_fract_y
_atom_site_fract_z
_atom_site_U_iso_or_equiv
C1  C  1.0000  -0.00069  0.19956  0.14006  0.0000
C2  C  1.0000  0.06556  0.13268  0.14034  0.0000
C3  C  1.0000  0.19848  0.19857  0.14082  0.0000
C4  C  1.0000  0.26449  0.13084  0.13911  0.0000
C5  C  1.0000  0.39701  0.19738  0.13941  0.0000
C6  C  1.0000  0.46525  0.13226  0.13892  0.0000
C7  C  1.0000  0.59848  0.20150  0.13987  0.0000
C8  C  1.0000  0.66657  0.13530  0.13831  0.0000
C9  C  1.0000  0.79938  0.20198  0.13906  0.0000
C10  C  1.0000  0.86658  0.13471  0.13951  0.0000
C11  C  1.0000  -0.00227  0.39930  0.13893  0.0000
C12  C  1.0000  0.06464  0.33162  0.13997  0.0000
C13  C  1.0000  0.19761  0.39773  0.14174  0.0000
C14  C  1.0000  0.26669  0.33140  0.14264  0.0000
C15  C  1.0000  0.46150  0.32949  0.14501  0.0000
C16  C  1.0000  0.66031  0.33420  0.14420  0.0000
C17  C  1.0000  0.79580  0.40321  0.14128  0.0000
C18  C  1.0000  0.86411  0.33531  0.13948  0.0000
C19  C  1.0000  0.00118  0.60054  0.13718  0.0000
C20  C  1.0000  0.06690  0.53254  0.13799  0.0000
C21  C  1.0000  0.20047  0.59558  0.14034  0.0000
C22  C  1.0000  0.86779  0.53731  0.13883  0.0000
C23  C  1.0000  0.00216  0.80146  0.13959  0.0000
C24  C  1.0000  0.06934  0.73396  0.13796  0.0000
C25  C  1.0000  0.20271  0.79797  0.13850  0.0000
C26  C  1.0000  0.27119  0.73024  0.14036  0.0000
C27  C  1.0000  0.40616  0.80065  0.14153  0.0000
C28  C  1.0000  0.60508  0.80572  0.14363  0.0000
C29  C  1.0000  0.79837  0.79994  0.14417  0.0000
C30  C  1.0000  0.86860  0.73481  0.14091  0.0000
C31  C  1.0000  -0.00003  -0.00053  0.14071  0.0000
C32  C  1.0000  0.06716  0.93326  0.13993  0.0000
C33  C  1.0000  0.20008  -0.00150  0.13871  0.0000
C34  C  1.0000  0.26740  0.93163  0.13823  0.0000
C35  C  1.0000  0.40020  -0.00079  0.13799  0.0000
C36  C  1.0000  0.46839  0.93341  0.13860  0.0000
C37  C  1.0000  0.60144  0.00227  0.13808  0.0000
C38  C  1.0000  0.66986  0.93693  0.13912  0.0000
C39  C  1.0000  0.80240  0.00259  0.14026  0.0000
C40  C  1.0000  0.86711  0.93362  0.14231  0.0000
N1  N  1.0000  0.58936  0.39380  0.15207  0.0000
N2  N  1.0000  0.80681  0.60500  0.14111  0.0000
N3  N  1.0000  0.66496  0.73525  0.14922  0.0000
N4  N  1.0000  0.39877  0.39648  0.14657  0.0000
N5  N  1.0000  0.26115  0.52735  0.14443  0.0000
N6  N  1.0000  0.47736  0.74188  0.14658  0.0000
Sc1  Sc  1.0000  0.42725  0.56971  0.19052  0.0000
Sc2  Sc  1.0000  0.65790  0.57303  0.19786  0.0000
