data_CNScTa
_audit_creation_method           'pos2cif.pl'
_cell_length_a               12.3170003891
_cell_length_b               12.3170003891315
_cell_length_c               20
_cell_angle_alpha            90
_cell_angle_beta             90
_cell_angle_gamma            120.010002136348
_symmetry_space_group_H-M        'P1'
_symmetry_Int_Tables_number      '1'
_symmetry_cell_setting           'triclinic'
loop_
_symmetry_equiv_pos_as_xyz
x,y,z

loop_
_atom_site_label
_atom_site_type_symbol
_atom_site_occupancy
_atom_site_fract_x
_atom_site_fract_y
_atom_site_fract_z
_atom_site_U_iso_or_equiv
C1  C  1.0000  0.00197  0.20231  0.14485  0.0000
C2  C  1.0000  0.06847  0.13544  0.14575  0.0000
C3  C  1.0000  0.20127  0.20091  0.14389  0.0000
C4  C  1.0000  0.26487  0.12979  0.14594  0.0000
C5  C  1.0000  0.39634  0.19347  0.14423  0.0000
C6  C  1.0000  0.46524  0.12964  0.14375  0.0000
C7  C  1.0000  0.59909  0.19973  0.14061  0.0000
C8  C  1.0000  0.66782  0.13503  0.14460  0.0000
C9  C  1.0000  0.80065  0.20344  0.14378  0.0000
C10  C  1.0000  0.86888  0.13741  0.14622  0.0000
C11  C  1.0000  -0.00140  0.40090  0.14075  0.0000
C12  C  1.0000  0.06691  0.33403  0.14152  0.0000
C13  C  1.0000  0.20029  0.40016  0.13676  0.0000
C14  C  1.0000  0.26841  0.33330  0.13863  0.0000
C15  C  1.0000  0.46083  0.32417  0.13582  0.0000
C16  C  1.0000  0.66146  0.33119  0.13539  0.0000
C17  C  1.0000  0.79572  0.40441  0.14000  0.0000
C18  C  1.0000  0.86494  0.33706  0.14130  0.0000
C19  C  1.0000  -0.00279  0.60043  0.14397  0.0000
C20  C  1.0000  0.06576  0.53347  0.14032  0.0000
C21  C  1.0000  0.20118  0.59574  0.13691  0.0000
C22  C  1.0000  0.86198  0.53821  0.14516  0.0000
C23  C  1.0000  0.00106  0.80096  0.14729  0.0000
C24  C  1.0000  0.06855  0.73353  0.14560  0.0000
C25  C  1.0000  0.20217  0.79645  0.14468  0.0000
C26  C  1.0000  0.27175  0.72935  0.14134  0.0000
C27  C  1.0000  0.40775  0.79942  0.14481  0.0000
C28  C  1.0000  0.60772  0.80676  0.15170  0.0000
C29  C  1.0000  0.80364  0.80556  0.15122  0.0000
C30  C  1.0000  0.86801  0.73665  0.14967  0.0000
C31  C  1.0000  0.00295  0.00230  0.14750  0.0000
C32  C  1.0000  0.06729  0.93335  0.14707  0.0000
C33  C  1.0000  0.20014  -0.00258  0.14681  0.0000
C34  C  1.0000  0.26737  0.93027  0.14639  0.0000
C35  C  1.0000  0.40032  -0.00280  0.14614  0.0000
C36  C  1.0000  0.46935  0.93209  0.14715  0.0000
C37  C  1.0000  0.60263  0.00209  0.14784  0.0000
C38  C  1.0000  0.67235  0.93863  0.15034  0.0000
C39  C  1.0000  0.80484  0.00562  0.14928  0.0000
C40  C  1.0000  0.87045  0.93747  0.14925  0.0000
N1  N  1.0000  0.58914  0.38861  0.12789  0.0000
N2  N  1.0000  0.79668  0.60613  0.15235  0.0000
N3  N  1.0000  0.67123  0.73843  0.15557  0.0000
N4  N  1.0000  0.40205  0.39719  0.13054  0.0000
N5  N  1.0000  0.26360  0.52857  0.12928  0.0000
N6  N  1.0000  0.48027  0.74126  0.14530  0.0000
Sc1  Sc  1.0000  0.44870  0.58356  0.08958  0.0000
Ta1  Ta  1.0000  0.59914  0.54206  0.16722  0.0000
