data_CNScTc
_audit_creation_method           'pos2cif.pl'
_cell_length_a               12.3170003891
_cell_length_b               12.3170003891315
_cell_length_c               20
_cell_angle_alpha            90
_cell_angle_beta             90
_cell_angle_gamma            120.010002136348
_symmetry_space_group_H-M        'P1'
_symmetry_Int_Tables_number      '1'
_symmetry_cell_setting           'triclinic'
loop_
_symmetry_equiv_pos_as_xyz
x,y,z

loop_
_atom_site_label
_atom_site_type_symbol
_atom_site_occupancy
_atom_site_fract_x
_atom_site_fract_y
_atom_site_fract_z
_atom_site_U_iso_or_equiv
C1  C  1.0000  -0.00034  0.20147  0.13285  0.0000
C2  C  1.0000  0.06487  0.13286  0.13071  0.0000
C3  C  1.0000  0.19641  0.19560  0.12689  0.0000
C4  C  1.0000  0.26273  0.12740  0.12714  0.0000
C5  C  1.0000  0.39484  0.19183  0.12746  0.0000
C6  C  1.0000  0.46452  0.12933  0.13338  0.0000
C7  C  1.0000  0.59781  0.20211  0.13674  0.0000
C8  C  1.0000  0.66677  0.13708  0.13901  0.0000
C9  C  1.0000  0.79952  0.20493  0.13876  0.0000
C10  C  1.0000  0.86744  0.13819  0.13676  0.0000
C11  C  1.0000  0.99728  0.40108  0.14089  0.0000
C12  C  1.0000  0.06451  0.33339  0.13481  0.0000
C13  C  1.0000  0.19770  0.39841  0.13382  0.0000
C14  C  1.0000  0.26357  0.32765  0.12650  0.0000
C15  C  1.0000  0.45654  0.32314  0.12937  0.0000
C16  C  1.0000  0.65766  0.33508  0.14146  0.0000
C17  C  1.0000  0.79327  0.40548  0.14651  0.0000
C18  C  1.0000  0.86297  0.33838  0.14174  0.0000
C19  C  1.0000  -0.00067  0.60116  0.14920  0.0000
C20  C  1.0000  0.06650  0.53341  0.14512  0.0000
C21  C  1.0000  0.20222  0.59457  0.14638  0.0000
C22  C  1.0000  0.86396  0.53991  0.15275  0.0000
C23  C  1.0000  0.00317  0.80197  0.14536  0.0000
C24  C  1.0000  0.07008  0.73399  0.14724  0.0000
C25  C  1.0000  0.20412  0.79639  0.14535  0.0000
C26  C  1.0000  0.27360  0.72917  0.14911  0.0000
C27  C  1.0000  0.40984  0.79933  0.15136  0.0000
C28  C  1.0000  0.61040  0.81052  0.15671  0.0000
C29  C  1.0000  0.80586  0.80902  0.15348  0.0000
C30  C  1.0000  0.87149  0.73964  0.15315  0.0000
C31  C  1.0000  0.00174  0.00111  0.13556  0.0000
C32  C  1.0000  0.06757  0.93324  0.13737  0.0000
C33  C  1.0000  0.19960  0.99570  0.13342  0.0000
C34  C  1.0000  0.26767  0.92945  0.13882  0.0000
C35  C  1.0000  0.40063  0.99661  0.13804  0.0000
C36  C  1.0000  0.46977  0.93224  0.14424  0.0000
C37  C  1.0000  0.60283  0.00376  0.14269  0.0000
C38  C  1.0000  0.67284  0.94072  0.14605  0.0000
C39  C  1.0000  0.80456  0.00666  0.14125  0.0000
C40  C  1.0000  0.87053  0.93863  0.14272  0.0000
N1  N  1.0000  0.58304  0.39192  0.14341  0.0000
N2  N  1.0000  0.80517  0.61094  0.16077  0.0000
N3  N  1.0000  0.67710  0.74695  0.16496  0.0000
N4  N  1.0000  0.39257  0.38642  0.12405  0.0000
N5  N  1.0000  0.26317  0.52627  0.14332  0.0000
N6  N  1.0000  0.48268  0.74293  0.16015  0.0000
Sc1  Sc  1.0000  0.44363  0.55106  0.17768  0.0000
Tc1  Tc  1.0000  0.62325  0.56404  0.17745  0.0000
