data_CNScTi
_audit_creation_method           'pos2cif.pl'
_cell_length_a               12.3170003891
_cell_length_b               12.3170003891315
_cell_length_c               20
_cell_angle_alpha            90
_cell_angle_beta             90
_cell_angle_gamma            120.010002136348
_symmetry_space_group_H-M        'P1'
_symmetry_Int_Tables_number      '1'
_symmetry_cell_setting           'triclinic'
loop_
_symmetry_equiv_pos_as_xyz
x,y,z

loop_
_atom_site_label
_atom_site_type_symbol
_atom_site_occupancy
_atom_site_fract_x
_atom_site_fract_y
_atom_site_fract_z
_atom_site_U_iso_or_equiv
C1  C  1.0000  -0.00073  0.19973  0.14077  0.0000
C2  C  1.0000  0.06551  0.13270  0.14084  0.0000
C3  C  1.0000  0.19829  0.19818  0.14108  0.0000
C4  C  1.0000  0.26437  0.13056  0.13915  0.0000
C5  C  1.0000  0.39702  0.19706  0.13905  0.0000
C6  C  1.0000  0.46530  0.13193  0.13889  0.0000
C7  C  1.0000  0.59836  0.20182  0.14043  0.0000
C8  C  1.0000  0.66653  0.13561  0.13872  0.0000
C9  C  1.0000  0.79925  0.20222  0.13989  0.0000
C10  C  1.0000  0.86658  0.13516  0.13976  0.0000
C11  C  1.0000  0.99754  0.39945  0.14071  0.0000
C12  C  1.0000  0.06451  0.33179  0.14122  0.0000
C13  C  1.0000  0.19750  0.39767  0.14281  0.0000
C14  C  1.0000  0.26615  0.33086  0.14286  0.0000
C15  C  1.0000  0.46096  0.32882  0.14470  0.0000
C16  C  1.0000  0.65976  0.33486  0.14512  0.0000
C17  C  1.0000  0.79539  0.40356  0.14270  0.0000
C18  C  1.0000  0.86381  0.33572  0.14106  0.0000
C19  C  1.0000  0.00089  0.60053  0.13895  0.0000
C20  C  1.0000  0.06681  0.53264  0.14005  0.0000
C21  C  1.0000  0.20069  0.59532  0.14223  0.0000
C22  C  1.0000  0.86717  0.53760  0.14014  0.0000
C23  C  1.0000  0.00241  0.80133  0.13977  0.0000
C24  C  1.0000  0.06952  0.73380  0.13915  0.0000
C25  C  1.0000  0.20308  0.79765  0.13970  0.0000
C26  C  1.0000  0.27155  0.72986  0.14166  0.0000
C27  C  1.0000  0.40689  0.79988  0.14172  0.0000
C28  C  1.0000  0.60555  0.80552  0.14097  0.0000
C29  C  1.0000  0.79949  0.80102  0.14142  0.0000
C30  C  1.0000  0.86914  0.73510  0.13980  0.0000
C31  C  1.0000  0.00041  -0.00028  0.14079  0.0000
C32  C  1.0000  0.06739  0.93329  0.14023  0.0000
C33  C  1.0000  0.20019  -0.00177  0.13913  0.0000
C34  C  1.0000  0.26760  0.93131  0.13880  0.0000
C35  C  1.0000  0.40039  -0.00124  0.13812  0.0000
C36  C  1.0000  0.46860  0.93284  0.13838  0.0000
C37  C  1.0000  0.60168  0.00237  0.13755  0.0000
C38  C  1.0000  0.67016  0.93716  0.13744  0.0000
C39  C  1.0000  0.80260  0.00290  0.13919  0.0000
C40  C  1.0000  0.86768  0.93432  0.14111  0.0000
N1  N  1.0000  0.58851  0.39439  0.15249  0.0000
N2  N  1.0000  0.80603  0.60548  0.14077  0.0000
N3  N  1.0000  0.66687  0.73622  0.14447  0.0000
N4  N  1.0000  0.39782  0.39529  0.14663  0.0000
N5  N  1.0000  0.26156  0.52720  0.14607  0.0000
N6  N  1.0000  0.47820  0.74095  0.14602  0.0000
Sc1  Sc  1.0000  0.43007  0.56700  0.19107  0.0000
Ti1  Ti  1.0000  0.65199  0.57577  0.18834  0.0000
