data_CNScV
_audit_creation_method           'pos2cif.pl'
_cell_length_a               12.3170003891
_cell_length_b               12.3170003891315
_cell_length_c               20
_cell_angle_alpha            90
_cell_angle_beta             90
_cell_angle_gamma            120.010002136348
_symmetry_space_group_H-M        'P1'
_symmetry_Int_Tables_number      '1'
_symmetry_cell_setting           'triclinic'
loop_
_symmetry_equiv_pos_as_xyz
x,y,z

loop_
_atom_site_label
_atom_site_type_symbol
_atom_site_occupancy
_atom_site_fract_x
_atom_site_fract_y
_atom_site_fract_z
_atom_site_U_iso_or_equiv
C1  C  1.0000  0.00194  0.20213  0.14162  0.0000
C2  C  1.0000  0.06854  0.13532  0.14210  0.0000
C3  C  1.0000  0.20146  0.20068  0.14187  0.0000
C4  C  1.0000  0.26411  0.12953  0.14165  0.0000
C5  C  1.0000  0.39635  0.19331  0.14107  0.0000
C6  C  1.0000  0.46571  0.12941  0.14090  0.0000
C7  C  1.0000  0.59867  0.19845  0.14106  0.0000
C8  C  1.0000  0.66785  0.13442  0.14141  0.0000
C9  C  1.0000  0.80096  0.20326  0.14114  0.0000
C10  C  1.0000  0.86890  0.13730  0.14133  0.0000
C11  C  1.0000  -0.00114  0.40065  0.14185  0.0000
C12  C  1.0000  0.06707  0.33384  0.14225  0.0000
C13  C  1.0000  0.20099  0.39999  0.14386  0.0000
C14  C  1.0000  0.27050  0.33456  0.14171  0.0000
C15  C  1.0000  0.46165  0.32319  0.14183  0.0000
C16  C  1.0000  0.66110  0.33073  0.14049  0.0000
C17  C  1.0000  0.79577  0.40379  0.14010  0.0000
C18  C  1.0000  0.86542  0.33706  0.14086  0.0000
C19  C  1.0000  -0.00154  0.60105  0.14117  0.0000
C20  C  1.0000  0.06623  0.53387  0.14225  0.0000
C21  C  1.0000  0.20034  0.59651  0.14539  0.0000
C22  C  1.0000  0.86295  0.53859  0.13981  0.0000
C23  C  1.0000  0.00096  0.80130  0.14216  0.0000
C24  C  1.0000  0.06826  0.73376  0.14212  0.0000
C25  C  1.0000  0.20227  0.79747  0.14321  0.0000
C26  C  1.0000  0.27136  0.73029  0.14520  0.0000
C27  C  1.0000  0.40701  0.79984  0.14551  0.0000
C28  C  1.0000  0.60796  0.80732  0.14350  0.0000
C29  C  1.0000  0.80183  0.80475  0.14239  0.0000
C30  C  1.0000  0.86813  0.73623  0.14125  0.0000
C31  C  1.0000  0.00260  0.00208  0.14247  0.0000
C32  C  1.0000  0.06708  0.93362  0.14257  0.0000
C33  C  1.0000  0.19972  -0.00223  0.14214  0.0000
C34  C  1.0000  0.26719  0.93060  0.14230  0.0000
C35  C  1.0000  0.40007  -0.00311  0.14156  0.0000
C36  C  1.0000  0.46895  0.93207  0.14251  0.0000
C37  C  1.0000  0.60263  0.00206  0.14212  0.0000
C38  C  1.0000  0.67217  0.93888  0.14199  0.0000
C39  C  1.0000  0.80436  0.00518  0.14159  0.0000
C40  C  1.0000  0.86963  0.93674  0.14250  0.0000
N1  N  1.0000  0.58872  0.38652  0.14013  0.0000
N2  N  1.0000  0.80051  0.60682  0.13881  0.0000
N3  N  1.0000  0.66949  0.73978  0.14125  0.0000
N4  N  1.0000  0.40514  0.39812  0.14419  0.0000
N5  N  1.0000  0.26315  0.52948  0.15009  0.0000
N6  N  1.0000  0.47956  0.74180  0.14947  0.0000
Sc1  Sc  1.0000  0.43231  0.57136  0.19302  0.0000
V1  V  1.0000  0.61213  0.55277  0.13218  0.0000
