data_CNScW
_audit_creation_method           'pos2cif.pl'
_cell_length_a               12.3170003891
_cell_length_b               12.3170003891315
_cell_length_c               20
_cell_angle_alpha            90
_cell_angle_beta             90
_cell_angle_gamma            120.010002136348
_symmetry_space_group_H-M        'P1'
_symmetry_Int_Tables_number      '1'
_symmetry_cell_setting           'triclinic'
loop_
_symmetry_equiv_pos_as_xyz
x,y,z

loop_
_atom_site_label
_atom_site_type_symbol
_atom_site_occupancy
_atom_site_fract_x
_atom_site_fract_y
_atom_site_fract_z
_atom_site_U_iso_or_equiv
C1  C  1.0000  0.00177  0.20236  0.13944  0.0000
C2  C  1.0000  0.06827  0.13550  0.13823  0.0000
C3  C  1.0000  0.20117  0.20086  0.14059  0.0000
C4  C  1.0000  0.26481  0.12995  0.13931  0.0000
C5  C  1.0000  0.39631  0.19354  0.14239  0.0000
C6  C  1.0000  0.46541  0.12968  0.14359  0.0000
C7  C  1.0000  0.59895  0.19942  0.14734  0.0000
C8  C  1.0000  0.66767  0.13479  0.14223  0.0000
C9  C  1.0000  0.80058  0.20364  0.14216  0.0000
C10  C  1.0000  0.86869  0.13747  0.13853  0.0000
C11  C  1.0000  0.99842  0.40101  0.14476  0.0000
C12  C  1.0000  0.06668  0.33410  0.14328  0.0000
C13  C  1.0000  0.20006  0.40009  0.14825  0.0000
C14  C  1.0000  0.26835  0.33322  0.14650  0.0000
C15  C  1.0000  0.45965  0.32335  0.15260  0.0000
C16  C  1.0000  0.66136  0.33108  0.15336  0.0000
C17  C  1.0000  0.79522  0.40454  0.14733  0.0000
C18  C  1.0000  0.86460  0.33727  0.14488  0.0000
C19  C  1.0000  -0.00267  0.60085  0.14236  0.0000
C20  C  1.0000  0.06571  0.53367  0.14568  0.0000
C21  C  1.0000  0.20105  0.59556  0.14938  0.0000
C22  C  1.0000  0.86188  0.53895  0.14163  0.0000
C23  C  1.0000  0.00177  0.80153  0.13765  0.0000
C24  C  1.0000  0.06882  0.73385  0.14046  0.0000
C25  C  1.0000  0.20262  0.79675  0.14191  0.0000
C26  C  1.0000  0.27197  0.72953  0.14573  0.0000
C27  C  1.0000  0.40788  0.79935  0.14277  0.0000
C28  C  1.0000  0.60759  0.80608  0.13513  0.0000
C29  C  1.0000  0.80375  0.80562  0.13336  0.0000
C30  C  1.0000  0.86891  0.73742  0.13541  0.0000
C31  C  1.0000  0.00298  0.00249  0.13627  0.0000
C32  C  1.0000  0.06768  0.93387  0.13727  0.0000
C33  C  1.0000  0.20030  -0.00234  0.13847  0.0000
C34  C  1.0000  0.26751  0.93039  0.14002  0.0000
C35  C  1.0000  0.40058  0.99726  0.14094  0.0000
C36  C  1.0000  0.46948  0.93214  0.14016  0.0000
C37  C  1.0000  0.60265  0.00180  0.13878  0.0000
C38  C  1.0000  0.67218  0.93802  0.13531  0.0000
C39  C  1.0000  0.80470  0.00560  0.13523  0.0000
C40  C  1.0000  0.87027  0.93745  0.13459  0.0000
N1  N  1.0000  0.58783  0.38742  0.16199  0.0000
N2  N  1.0000  0.79782  0.60751  0.13484  0.0000
N3  N  1.0000  0.67094  0.73700  0.13087  0.0000
N4  N  1.0000  0.40118  0.39608  0.15652  0.0000
N5  N  1.0000  0.26321  0.52827  0.15638  0.0000
N6  N  1.0000  0.48045  0.74147  0.14286  0.0000
Sc1  Sc  1.0000  0.44814  0.58215  0.19740  0.0000
W1  W  1.0000  0.60188  0.54352  0.12778  0.0000
