data_CNScY
_audit_creation_method           'pos2cif.pl'
_cell_length_a               12.3170003891
_cell_length_b               12.3170003891315
_cell_length_c               20
_cell_angle_alpha            90
_cell_angle_beta             90
_cell_angle_gamma            120.010002136348
_symmetry_space_group_H-M        'P1'
_symmetry_Int_Tables_number      '1'
_symmetry_cell_setting           'triclinic'
loop_
_symmetry_equiv_pos_as_xyz
x,y,z

loop_
_atom_site_label
_atom_site_type_symbol
_atom_site_occupancy
_atom_site_fract_x
_atom_site_fract_y
_atom_site_fract_z
_atom_site_U_iso_or_equiv
C1  C  1.0000  -0.00069  0.20122  0.14063  0.0000
C2  C  1.0000  0.06337  0.13240  0.13785  0.0000
C3  C  1.0000  0.19604  0.19773  0.13969  0.0000
C4  C  1.0000  0.26171  0.12956  0.13611  0.0000
C5  C  1.0000  0.39436  0.19577  0.13880  0.0000
C6  C  1.0000  0.46350  0.13221  0.13762  0.0000
C7  C  1.0000  0.59708  0.20181  0.14127  0.0000
C8  C  1.0000  0.66630  0.13732  0.13779  0.0000
C9  C  1.0000  0.79907  0.20370  0.14166  0.0000
C10  C  1.0000  0.86663  0.13709  0.13871  0.0000
C11  C  1.0000  -0.00202  0.40055  0.14687  0.0000
C12  C  1.0000  0.06570  0.33350  0.14479  0.0000
C13  C  1.0000  0.19892  0.39937  0.14766  0.0000
C14  C  1.0000  0.26394  0.32961  0.14562  0.0000
C15  C  1.0000  0.45800  0.32663  0.14862  0.0000
C16  C  1.0000  0.65809  0.33260  0.15046  0.0000
C17  C  1.0000  0.79495  0.40428  0.15106  0.0000
C18  C  1.0000  0.86439  0.33691  0.14728  0.0000
C19  C  1.0000  0.00102  0.60098  0.14389  0.0000
C20  C  1.0000  0.06845  0.53383  0.14555  0.0000
C21  C  1.0000  0.20371  0.59616  0.14535  0.0000
C22  C  1.0000  0.86680  0.53837  0.14909  0.0000
C23  C  1.0000  -0.00214  0.80029  0.13726  0.0000
C24  C  1.0000  0.06714  0.73374  0.13960  0.0000
C25  C  1.0000  0.20067  0.79733  0.13673  0.0000
C26  C  1.0000  0.27044  0.73055  0.13830  0.0000
C27  C  1.0000  0.40532  0.80297  0.13271  0.0000
C28  C  1.0000  0.60519  0.81057  0.13032  0.0000
C29  C  1.0000  0.79350  0.79881  0.13619  0.0000
C30  C  1.0000  0.86408  0.73435  0.14147  0.0000
C31  C  1.0000  -0.00296  -0.00107  0.13481  0.0000
C32  C  1.0000  0.06362  0.93217  0.13397  0.0000
C33  C  1.0000  0.19705  -0.00258  0.13371  0.0000
C34  C  1.0000  0.26517  0.93128  0.13387  0.0000
C35  C  1.0000  0.39807  -0.00045  0.13389  0.0000
C36  C  1.0000  0.46705  0.93513  0.13214  0.0000
C37  C  1.0000  0.60082  0.00521  0.13287  0.0000
C38  C  1.0000  0.67002  0.94197  0.13217  0.0000
C39  C  1.0000  0.80163  0.00491  0.13467  0.0000
C40  C  1.0000  0.86406  0.93320  0.13438  0.0000
N1  N  1.0000  0.58464  0.38913  0.16056  0.0000
N2  N  1.0000  0.80510  0.60669  0.15448  0.0000
N3  N  1.0000  0.66116  0.73785  0.13367  0.0000
N4  N  1.0000  0.39539  0.39263  0.15009  0.0000
N5  N  1.0000  0.26695  0.52916  0.15168  0.0000
N6  N  1.0000  0.47694  0.74587  0.13003  0.0000
Sc1  Sc  1.0000  0.47115  0.58663  0.16682  0.0000
Y1  Y  1.0000  0.67765  0.53324  0.23919  0.0000
