data_CNScZn
_audit_creation_method           'pos2cif.pl'
_cell_length_a               12.3170003891
_cell_length_b               12.3170003891315
_cell_length_c               20
_cell_angle_alpha            90
_cell_angle_beta             90
_cell_angle_gamma            120.010002136348
_symmetry_space_group_H-M        'P1'
_symmetry_Int_Tables_number      '1'
_symmetry_cell_setting           'triclinic'
loop_
_symmetry_equiv_pos_as_xyz
x,y,z

loop_
_atom_site_label
_atom_site_type_symbol
_atom_site_occupancy
_atom_site_fract_x
_atom_site_fract_y
_atom_site_fract_z
_atom_site_U_iso_or_equiv
C1  C  1.0000  -0.00051  0.20081  0.14067  0.0000
C2  C  1.0000  0.06378  0.13193  0.13841  0.0000
C3  C  1.0000  0.19689  0.19751  0.13795  0.0000
C4  C  1.0000  0.26259  0.12928  0.13460  0.0000
C5  C  1.0000  0.39518  0.19563  0.13498  0.0000
C6  C  1.0000  0.46422  0.13208  0.13464  0.0000
C7  C  1.0000  0.59758  0.20215  0.13764  0.0000
C8  C  1.0000  0.66639  0.13752  0.13722  0.0000
C9  C  1.0000  0.79932  0.20379  0.14066  0.0000
C10  C  1.0000  0.86686  0.13694  0.13946  0.0000
C11  C  1.0000  -0.00166  0.40052  0.14593  0.0000
C12  C  1.0000  0.06563  0.33322  0.14388  0.0000
C13  C  1.0000  0.19926  0.39894  0.14585  0.0000
C14  C  1.0000  0.26532  0.32983  0.14193  0.0000
C15  C  1.0000  0.46116  0.32780  0.14083  0.0000
C16  C  1.0000  0.65833  0.33487  0.14437  0.0000
C17  C  1.0000  0.79473  0.40407  0.14834  0.0000
C18  C  1.0000  0.86370  0.33725  0.14525  0.0000
C19  C  1.0000  0.00140  0.60097  0.14566  0.0000
C20  C  1.0000  0.06865  0.53346  0.14594  0.0000
C21  C  1.0000  0.20398  0.59538  0.14638  0.0000
C22  C  1.0000  0.86665  0.53938  0.15061  0.0000
C23  C  1.0000  -0.00103  0.79970  0.14063  0.0000
C24  C  1.0000  0.06795  0.73346  0.14237  0.0000
C25  C  1.0000  0.20201  0.79731  0.13938  0.0000
C26  C  1.0000  0.27146  0.73048  0.14112  0.0000
C27  C  1.0000  0.40592  0.80185  0.13636  0.0000
C28  C  1.0000  0.60614  0.81041  0.13562  0.0000
C29  C  1.0000  0.79405  0.79837  0.14129  0.0000
C30  C  1.0000  0.86474  0.73196  0.14594  0.0000
C31  C  1.0000  -0.00222  -0.00155  0.13751  0.0000
C32  C  1.0000  0.06449  0.93176  0.13662  0.0000
C33  C  1.0000  0.19768  0.99688  0.13453  0.0000
C34  C  1.0000  0.26578  0.93066  0.13519  0.0000
C35  C  1.0000  0.39881  -0.00112  0.13397  0.0000
C36  C  1.0000  0.46763  0.93469  0.13425  0.0000
C37  C  1.0000  0.60118  0.00484  0.13492  0.0000
C38  C  1.0000  0.67053  0.94175  0.13604  0.0000
C39  C  1.0000  0.80203  0.00445  0.13773  0.0000
C40  C  1.0000  0.86434  0.93224  0.13855  0.0000
N1  N  1.0000  0.58703  0.39265  0.14821  0.0000
N2  N  1.0000  0.80530  0.60581  0.15634  0.0000
N3  N  1.0000  0.66244  0.73842  0.13900  0.0000
N4  N  1.0000  0.39642  0.39321  0.14335  0.0000
N5  N  1.0000  0.26676  0.52831  0.15094  0.0000
N6  N  1.0000  0.47761  0.74481  0.13538  0.0000
Sc1  Sc  1.0000  0.47159  0.58282  0.16939  0.0000
Zn1  Zn  1.0000  0.64893  0.54363  0.22615  0.0000
