data_CNScZr
_audit_creation_method           'pos2cif.pl'
_cell_length_a               12.3170003891
_cell_length_b               12.3170003891315
_cell_length_c               20
_cell_angle_alpha            90
_cell_angle_beta             90
_cell_angle_gamma            120.010002136348
_symmetry_space_group_H-M        'P1'
_symmetry_Int_Tables_number      '1'
_symmetry_cell_setting           'triclinic'
loop_
_symmetry_equiv_pos_as_xyz
x,y,z

loop_
_atom_site_label
_atom_site_type_symbol
_atom_site_occupancy
_atom_site_fract_x
_atom_site_fract_y
_atom_site_fract_z
_atom_site_U_iso_or_equiv
C1  C  1.0000  -0.00053  0.19994  0.13932  0.0000
C2  C  1.0000  0.06628  0.13337  0.13983  0.0000
C3  C  1.0000  0.19905  0.19888  0.14043  0.0000
C4  C  1.0000  0.26479  0.13098  0.13872  0.0000
C5  C  1.0000  0.39747  0.19723  0.13859  0.0000
C6  C  1.0000  0.46560  0.13181  0.13872  0.0000
C7  C  1.0000  0.59861  0.20140  0.14011  0.0000
C8  C  1.0000  0.66666  0.13519  0.13832  0.0000
C9  C  1.0000  0.79949  0.20217  0.13868  0.0000
C10  C  1.0000  0.86674  0.13512  0.13867  0.0000
C11  C  1.0000  -0.00235  0.39955  0.13788  0.0000
C12  C  1.0000  0.06456  0.33192  0.13887  0.0000
C13  C  1.0000  0.19785  0.39820  0.14011  0.0000
C14  C  1.0000  0.26711  0.33184  0.14195  0.0000
C15  C  1.0000  0.46134  0.32874  0.14474  0.0000
C16  C  1.0000  0.66042  0.33430  0.14492  0.0000
C17  C  1.0000  0.79563  0.40347  0.14150  0.0000
C18  C  1.0000  0.86404  0.33558  0.13912  0.0000
C19  C  1.0000  0.00059  0.60069  0.13674  0.0000
C20  C  1.0000  0.06648  0.53282  0.13695  0.0000
C21  C  1.0000  0.20002  0.59568  0.13933  0.0000
C22  C  1.0000  0.86721  0.53753  0.13885  0.0000
C23  C  1.0000  0.00283  0.80167  0.13899  0.0000
C24  C  1.0000  0.06961  0.73408  0.13774  0.0000
C25  C  1.0000  0.20327  0.79797  0.13889  0.0000
C26  C  1.0000  0.27163  0.73014  0.14109  0.0000
C27  C  1.0000  0.40699  0.79945  0.14366  0.0000
C28  C  1.0000  0.60528  0.80520  0.14443  0.0000
C29  C  1.0000  0.80049  0.80205  0.14278  0.0000
C30  C  1.0000  0.86942  0.73555  0.14021  0.0000
C31  C  1.0000  0.00120  0.00045  0.14001  0.0000
C32  C  1.0000  0.06785  0.93370  0.13948  0.0000
C33  C  1.0000  0.20061  -0.00140  0.13862  0.0000
C34  C  1.0000  0.26784  0.93151  0.13855  0.0000
C35  C  1.0000  0.40070  -0.00135  0.13829  0.0000
C36  C  1.0000  0.46874  0.93249  0.13950  0.0000
C37  C  1.0000  0.60175  0.00206  0.13835  0.0000
C38  C  1.0000  0.67000  0.93659  0.13852  0.0000
C39  C  1.0000  0.80267  0.00281  0.13900  0.0000
C40  C  1.0000  0.86854  0.93521  0.14099  0.0000
N1  N  1.0000  0.58887  0.39340  0.15355  0.0000
N2  N  1.0000  0.80586  0.60553  0.14171  0.0000
N3  N  1.0000  0.66849  0.73772  0.14872  0.0000
N4  N  1.0000  0.39905  0.39606  0.14720  0.0000
N5  N  1.0000  0.26076  0.52772  0.14208  0.0000
N6  N  1.0000  0.47811  0.74029  0.15108  0.0000
Sc1  Sc  1.0000  0.41705  0.56009  0.19536  0.0000
Zr1  Zr  1.0000  0.65236  0.57575  0.20079  0.0000
