data_CNTa
_audit_creation_method           'pos2cif.pl'
_cell_length_a               12.3170003891
_cell_length_b               12.3170003891315
_cell_length_c               20
_cell_angle_alpha            90
_cell_angle_beta             90
_cell_angle_gamma            120.010002136348
_symmetry_space_group_H-M        'P1'
_symmetry_Int_Tables_number      '1'
_symmetry_cell_setting           'triclinic'
loop_
_symmetry_equiv_pos_as_xyz
x,y,z

loop_
_atom_site_label
_atom_site_type_symbol
_atom_site_occupancy
_atom_site_fract_x
_atom_site_fract_y
_atom_site_fract_z
_atom_site_U_iso_or_equiv
C1  C  1.0000  0.99838  0.20006  0.13123  0.0000
C2  C  1.0000  0.06491  0.13285  0.12873  0.0000
C3  C  1.0000  0.19669  0.19634  0.13114  0.0000
C4  C  1.0000  0.26404  0.12959  0.13230  0.0000
C5  C  1.0000  0.39624  0.19644  0.13713  0.0000
C6  C  1.0000  0.46508  0.13138  0.13975  0.0000
C7  C  1.0000  0.59777  0.20306  0.14297  0.0000
C8  C  1.0000  0.66603  0.13626  0.14001  0.0000
C9  C  1.0000  0.79854  0.20346  0.13811  0.0000
C10  C  1.0000  0.86593  0.13623  0.13303  0.0000
C11  C  1.0000  0.99599  0.39982  0.14082  0.0000
C12  C  1.0000  0.06255  0.33180  0.13594  0.0000
C13  C  1.0000  0.19474  0.39564  0.13920  0.0000
C14  C  1.0000  0.26088  0.32705  0.13740  0.0000
C15  C  1.0000  0.45738  0.32734  0.14555  0.0000
C16  C  1.0000  0.65809  0.33672  0.14866  0.0000
C17  C  1.0000  0.79374  0.40544  0.14737  0.0000
C18  C  1.0000  0.86227  0.33702  0.14192  0.0000
C19  C  1.0000  0.00068  0.60120  0.14423  0.0000
C20  C  1.0000  0.06673  0.53265  0.14402  0.0000
C21  C  1.0000  0.20147  0.59391  0.14697  0.0000
C22  C  1.0000  0.86595  0.53995  0.14743  0.0000
C23  C  1.0000  0.00482  0.80201  0.13642  0.0000
C24  C  1.0000  0.07142  0.73402  0.14104  0.0000
C25  C  1.0000  0.20515  0.79683  0.14193  0.0000
C26  C  1.0000  0.27367  0.72841  0.14726  0.0000
C27  C  1.0000  0.40930  0.79711  0.14888  0.0000
C28  C  1.0000  0.61006  0.80653  0.14655  0.0000
C29  C  1.0000  0.80657  0.80685  0.13856  0.0000
C30  C  1.0000  0.87268  0.73823  0.14015  0.0000
C31  C  1.0000  0.00242  0.00091  0.12895  0.0000
C32  C  1.0000  0.06897  0.93372  0.13139  0.0000
C33  C  1.0000  0.20144  0.99757  0.13280  0.0000
C34  C  1.0000  0.26888  0.93038  0.13799  0.0000
C35  C  1.0000  0.40141  0.99758  0.13988  0.0000
C36  C  1.0000  0.46965  0.93078  0.14317  0.0000
C37  C  1.0000  0.60235  0.00245  0.14014  0.0000
C38  C  1.0000  0.67119  0.93738  0.13793  0.0000
C39  C  1.0000  0.80335  0.00421  0.13295  0.0000
C40  C  1.0000  0.87068  0.93745  0.13186  0.0000
N1  N  1.0000  0.58457  0.39600  0.15560  0.0000
N2  N  1.0000  0.80543  0.60969  0.14963  0.0000
N3  N  1.0000  0.67768  0.74338  0.14938  0.0000
N4  N  1.0000  0.38985  0.39058  0.14797  0.0000
N5  N  1.0000  0.26203  0.52420  0.14866  0.0000
N6  N  1.0000  0.48276  0.73780  0.15615  0.0000
Ta1  Ta  1.0000  0.43148  0.55444  0.19617  0.0000
Ta2  Ta  1.0000  0.63512  0.57842  0.19663  0.0000
