data_CNTaTc
_audit_creation_method           'pos2cif.pl'
_cell_length_a               12.3170003891
_cell_length_b               12.3170003891315
_cell_length_c               20
_cell_angle_alpha            90
_cell_angle_beta             90
_cell_angle_gamma            120.010002136348
_symmetry_space_group_H-M        'P1'
_symmetry_Int_Tables_number      '1'
_symmetry_cell_setting           'triclinic'
loop_
_symmetry_equiv_pos_as_xyz
x,y,z

loop_
_atom_site_label
_atom_site_type_symbol
_atom_site_occupancy
_atom_site_fract_x
_atom_site_fract_y
_atom_site_fract_z
_atom_site_U_iso_or_equiv
C1  C  1.0000  0.99857  0.20070  0.12705  0.0000
C2  C  1.0000  0.06420  0.13228  0.12310  0.0000
C3  C  1.0000  0.19578  0.19463  0.12700  0.0000
C4  C  1.0000  0.26332  0.12779  0.12909  0.0000
C5  C  1.0000  0.39484  0.19349  0.13604  0.0000
C6  C  1.0000  0.46461  0.13001  0.13899  0.0000
C7  C  1.0000  0.59735  0.20277  0.14326  0.0000
C8  C  1.0000  0.66623  0.13717  0.14006  0.0000
C9  C  1.0000  0.79894  0.20473  0.13715  0.0000
C10  C  1.0000  0.86643  0.13768  0.13079  0.0000
C11  C  1.0000  0.99649  0.40041  0.13919  0.0000
C12  C  1.0000  0.06283  0.33226  0.13279  0.0000
C13  C  1.0000  0.19531  0.39573  0.13626  0.0000
C14  C  1.0000  0.25970  0.32441  0.13677  0.0000
C15  C  1.0000  0.45448  0.32275  0.14839  0.0000
C16  C  1.0000  0.65683  0.33582  0.15077  0.0000
C17  C  1.0000  0.79316  0.40570  0.14865  0.0000
C18  C  1.0000  0.86204  0.33811  0.14124  0.0000
C19  C  1.0000  0.00154  0.60127  0.14515  0.0000
C20  C  1.0000  0.06779  0.53274  0.14376  0.0000
C21  C  1.0000  0.20275  0.59339  0.14536  0.0000
C22  C  1.0000  0.86664  0.54116  0.14896  0.0000
C23  C  1.0000  0.00509  0.80200  0.13628  0.0000
C24  C  1.0000  0.07172  0.73373  0.14081  0.0000
C25  C  1.0000  0.20592  0.79624  0.14106  0.0000
C26  C  1.0000  0.27497  0.72850  0.14738  0.0000
C27  C  1.0000  0.41015  0.79813  0.15225  0.0000
C28  C  1.0000  0.61357  0.81157  0.15411  0.0000
C29  C  1.0000  0.80761  0.80930  0.14400  0.0000
C30  C  1.0000  0.87322  0.73873  0.14338  0.0000
C31  C  1.0000  0.00192  0.00047  0.12447  0.0000
C32  C  1.0000  0.06869  0.93321  0.12834  0.0000
C33  C  1.0000  0.20090  0.99594  0.12947  0.0000
C34  C  1.0000  0.26873  0.92925  0.13636  0.0000
C35  C  1.0000  0.40134  0.99670  0.13927  0.0000
C36  C  1.0000  0.47006  0.93132  0.14492  0.0000
C37  C  1.0000  0.60295  0.00388  0.14167  0.0000
C38  C  1.0000  0.67284  0.94026  0.14069  0.0000
C39  C  1.0000  0.80408  0.00591  0.13271  0.0000
C40  C  1.0000  0.87048  0.93784  0.13128  0.0000
N1  N  1.0000  0.58120  0.39161  0.16046  0.0000
N2  N  1.0000  0.80845  0.61165  0.15083  0.0000
N3  N  1.0000  0.68188  0.75101  0.16184  0.0000
N4  N  1.0000  0.38487  0.38264  0.15306  0.0000
N5  N  1.0000  0.26339  0.52407  0.14429  0.0000
N6  N  1.0000  0.48533  0.74202  0.16413  0.0000
Ta1  Ta  1.0000  0.43732  0.55742  0.19586  0.0000
Tc1  Tc  1.0000  0.62050  0.57277  0.18319  0.0000
