data_CNTaTi
_audit_creation_method           'pos2cif.pl'
_cell_length_a               12.3170003891
_cell_length_b               12.3170003891315
_cell_length_c               20
_cell_angle_alpha            90
_cell_angle_beta             90
_cell_angle_gamma            120.010002136348
_symmetry_space_group_H-M        'P1'
_symmetry_Int_Tables_number      '1'
_symmetry_cell_setting           'triclinic'
loop_
_symmetry_equiv_pos_as_xyz
x,y,z

loop_
_atom_site_label
_atom_site_type_symbol
_atom_site_occupancy
_atom_site_fract_x
_atom_site_fract_y
_atom_site_fract_z
_atom_site_U_iso_or_equiv
C1  C  1.0000  0.00072  0.20105  0.14068  0.0000
C2  C  1.0000  0.06551  0.13250  0.14047  0.0000
C3  C  1.0000  0.19823  0.19754  0.13828  0.0000
C4  C  1.0000  0.26303  0.12847  0.13858  0.0000
C5  C  1.0000  0.39528  0.19473  0.13655  0.0000
C6  C  1.0000  0.46486  0.13118  0.13968  0.0000
C7  C  1.0000  0.59826  0.20106  0.13987  0.0000
C8  C  1.0000  0.66721  0.13620  0.14323  0.0000
C9  C  1.0000  0.80023  0.20366  0.14200  0.0000
C10  C  1.0000  0.86785  0.13687  0.14223  0.0000
C11  C  1.0000  -0.00117  0.40051  0.14013  0.0000
C12  C  1.0000  0.06656  0.33327  0.13912  0.0000
C13  C  1.0000  0.19974  0.39794  0.13554  0.0000
C14  C  1.0000  0.26499  0.32951  0.13516  0.0000
C15  C  1.0000  0.46012  0.32611  0.13188  0.0000
C16  C  1.0000  0.66035  0.33367  0.13869  0.0000
C17  C  1.0000  0.79554  0.40455  0.14315  0.0000
C18  C  1.0000  0.86509  0.33742  0.14147  0.0000
C19  C  1.0000  0.00006  0.60033  0.14531  0.0000
C20  C  1.0000  0.06890  0.53345  0.14107  0.0000
C21  C  1.0000  0.20445  0.59546  0.13894  0.0000
C22  C  1.0000  0.86431  0.53837  0.14833  0.0000
C23  C  1.0000  0.00024  0.79979  0.14511  0.0000
C24  C  1.0000  0.06855  0.73302  0.14539  0.0000
C25  C  1.0000  0.20238  0.79654  0.14509  0.0000
C26  C  1.0000  0.27182  0.72923  0.14543  0.0000
C27  C  1.0000  0.40621  0.80157  0.15159  0.0000
C28  C  1.0000  0.60783  0.80950  0.15537  0.0000
C29  C  1.0000  0.80009  0.80196  0.14848  0.0000
C30  C  1.0000  0.86677  0.73421  0.14929  0.0000
C31  C  1.0000  0.00004  -0.00057  0.14223  0.0000
C32  C  1.0000  0.06573  0.93182  0.14266  0.0000
C33  C  1.0000  0.19882  0.99654  0.14162  0.0000
C34  C  1.0000  0.26684  0.93022  0.14381  0.0000
C35  C  1.0000  0.39982  -0.00154  0.14383  0.0000
C36  C  1.0000  0.46861  0.93368  0.14863  0.0000
C37  C  1.0000  0.60235  0.00371  0.14734  0.0000
C38  C  1.0000  0.67192  0.94028  0.14826  0.0000
C39  C  1.0000  0.80349  0.00476  0.14455  0.0000
C40  C  1.0000  0.86718  0.93419  0.14452  0.0000
N1  N  1.0000  0.58812  0.39150  0.13411  0.0000
N2  N  1.0000  0.80064  0.60531  0.15571  0.0000
N3  N  1.0000  0.66686  0.73654  0.15706  0.0000
N4  N  1.0000  0.39815  0.39633  0.12817  0.0000
N5  N  1.0000  0.26885  0.52776  0.13086  0.0000
N6  N  1.0000  0.47908  0.74425  0.15861  0.0000
Ta1  Ta  1.0000  0.46861  0.59238  0.11375  0.0000
Ti1  Ti  1.0000  0.60790  0.54430  0.18012  0.0000
