data_CNTaV
_audit_creation_method           'pos2cif.pl'
_cell_length_a               12.3170003891
_cell_length_b               12.3170003891315
_cell_length_c               20
_cell_angle_alpha            90
_cell_angle_beta             90
_cell_angle_gamma            120.010002136348
_symmetry_space_group_H-M        'P1'
_symmetry_Int_Tables_number      '1'
_symmetry_cell_setting           'triclinic'
loop_
_symmetry_equiv_pos_as_xyz
x,y,z

loop_
_atom_site_label
_atom_site_type_symbol
_atom_site_occupancy
_atom_site_fract_x
_atom_site_fract_y
_atom_site_fract_z
_atom_site_U_iso_or_equiv
C1  C  1.0000  0.99970  0.20055  0.13827  0.0000
C2  C  1.0000  0.06414  0.13163  0.13679  0.0000
C3  C  1.0000  0.19648  0.19586  0.13438  0.0000
C4  C  1.0000  0.26221  0.12777  0.13485  0.0000
C5  C  1.0000  0.39464  0.19448  0.13559  0.0000
C6  C  1.0000  0.46424  0.13100  0.14043  0.0000
C7  C  1.0000  0.59751  0.20180  0.14238  0.0000
C8  C  1.0000  0.66661  0.13672  0.14362  0.0000
C9  C  1.0000  0.79950  0.20379  0.14242  0.0000
C10  C  1.0000  0.86708  0.13680  0.14080  0.0000
C11  C  1.0000  0.99815  0.40034  0.14091  0.0000
C12  C  1.0000  0.06547  0.33278  0.13793  0.0000
C13  C  1.0000  0.19846  0.39696  0.13478  0.0000
C14  C  1.0000  0.26271  0.32747  0.13253  0.0000
C15  C  1.0000  0.45790  0.32577  0.13585  0.0000
C16  C  1.0000  0.65878  0.33447  0.14503  0.0000
C17  C  1.0000  0.79448  0.40453  0.14675  0.0000
C18  C  1.0000  0.86415  0.33751  0.14324  0.0000
C19  C  1.0000  0.00067  0.60033  0.14529  0.0000
C20  C  1.0000  0.06916  0.53311  0.14206  0.0000
C21  C  1.0000  0.20502  0.59481  0.14073  0.0000
C22  C  1.0000  0.86509  0.53883  0.14908  0.0000
C23  C  1.0000  0.00098  0.80008  0.14251  0.0000
C24  C  1.0000  0.06894  0.73295  0.14394  0.0000
C25  C  1.0000  0.20274  0.79629  0.14405  0.0000
C26  C  1.0000  0.27219  0.72888  0.14608  0.0000
C27  C  1.0000  0.40649  0.80121  0.15188  0.0000
C28  C  1.0000  0.60801  0.81020  0.15454  0.0000
C29  C  1.0000  0.80069  0.80252  0.14616  0.0000
C30  C  1.0000  0.86791  0.73514  0.14689  0.0000
C31  C  1.0000  -0.00051  -0.00102  0.13867  0.0000
C32  C  1.0000  0.06575  0.93184  0.13919  0.0000
C33  C  1.0000  0.19862  0.99606  0.13824  0.0000
C34  C  1.0000  0.26672  0.92980  0.14191  0.0000
C35  C  1.0000  0.39965  -0.00175  0.14317  0.0000
C36  C  1.0000  0.46845  0.93338  0.14817  0.0000
C37  C  1.0000  0.60197  0.00399  0.14655  0.0000
C38  C  1.0000  0.67155  0.94056  0.14661  0.0000
C39  C  1.0000  0.80303  0.00481  0.14248  0.0000
C40  C  1.0000  0.86688  0.93424  0.14178  0.0000
N1  N  1.0000  0.58476  0.39193  0.14702  0.0000
N2  N  1.0000  0.80300  0.60685  0.15437  0.0000
N3  N  1.0000  0.66799  0.73801  0.15644  0.0000
N4  N  1.0000  0.39450  0.39294  0.12930  0.0000
N5  N  1.0000  0.26919  0.52681  0.13402  0.0000
N6  N  1.0000  0.47952  0.74402  0.15960  0.0000
Ta1  Ta  1.0000  0.47238  0.58849  0.12056  0.0000
V1  V  1.0000  0.62345  0.55560  0.18413  0.0000
