data_CNTaW
_audit_creation_method           'pos2cif.pl'
_cell_length_a               12.3170003891
_cell_length_b               12.3170003891315
_cell_length_c               20
_cell_angle_alpha            90
_cell_angle_beta             90
_cell_angle_gamma            120.010002136348
_symmetry_space_group_H-M        'P1'
_symmetry_Int_Tables_number      '1'
_symmetry_cell_setting           'triclinic'
loop_
_symmetry_equiv_pos_as_xyz
x,y,z

loop_
_atom_site_label
_atom_site_type_symbol
_atom_site_occupancy
_atom_site_fract_x
_atom_site_fract_y
_atom_site_fract_z
_atom_site_U_iso_or_equiv
C1  C  1.0000  -0.00191  0.20008  0.12979  0.0000
C2  C  1.0000  0.06459  0.13263  0.12679  0.0000
C3  C  1.0000  0.19648  0.19622  0.12955  0.0000
C4  C  1.0000  0.26416  0.12968  0.13200  0.0000
C5  C  1.0000  0.39615  0.19643  0.13820  0.0000
C6  C  1.0000  0.46502  0.13153  0.14187  0.0000
C7  C  1.0000  0.59782  0.20379  0.14531  0.0000
C8  C  1.0000  0.66590  0.13655  0.14249  0.0000
C9  C  1.0000  0.79837  0.20361  0.13919  0.0000
C10  C  1.0000  0.86569  0.13623  0.13354  0.0000
C11  C  1.0000  0.99580  0.39999  0.13880  0.0000
C12  C  1.0000  0.06216  0.33192  0.13348  0.0000
C13  C  1.0000  0.19481  0.39641  0.13583  0.0000
C14  C  1.0000  0.26022  0.32691  0.13569  0.0000
C15  C  1.0000  0.45656  0.32746  0.14684  0.0000
C16  C  1.0000  0.65829  0.33764  0.15016  0.0000
C17  C  1.0000  0.79358  0.40579  0.14702  0.0000
C18  C  1.0000  0.86186  0.33724  0.14144  0.0000
C19  C  1.0000  0.00098  0.60135  0.14252  0.0000
C20  C  1.0000  0.06675  0.53264  0.14195  0.0000
C21  C  1.0000  0.20159  0.59355  0.14412  0.0000
C22  C  1.0000  0.86632  0.54062  0.14563  0.0000
C23  C  1.0000  0.00523  0.80196  0.13444  0.0000
C24  C  1.0000  0.07175  0.73403  0.13910  0.0000
C25  C  1.0000  0.20566  0.79685  0.14099  0.0000
C26  C  1.0000  0.27400  0.72829  0.14647  0.0000
C27  C  1.0000  0.40926  0.79678  0.15065  0.0000
C28  C  1.0000  0.61047  0.80631  0.15045  0.0000
C29  C  1.0000  0.80719  0.80682  0.13923  0.0000
C30  C  1.0000  0.87285  0.73771  0.13842  0.0000
C31  C  1.0000  0.00227  0.00072  0.12732  0.0000
C32  C  1.0000  0.06915  0.93371  0.12983  0.0000
C33  C  1.0000  0.20163  0.99755  0.13221  0.0000
C34  C  1.0000  0.26909  0.93040  0.13820  0.0000
C35  C  1.0000  0.40166  0.99769  0.14168  0.0000
C36  C  1.0000  0.46972  0.93065  0.14586  0.0000
C37  C  1.0000  0.60251  0.00256  0.14344  0.0000
C38  C  1.0000  0.67141  0.93745  0.14128  0.0000
C39  C  1.0000  0.80318  0.00413  0.13458  0.0000
C40  C  1.0000  0.87042  0.93706  0.13184  0.0000
N1  N  1.0000  0.58367  0.39716  0.15827  0.0000
N2  N  1.0000  0.80592  0.60976  0.14638  0.0000
N3  N  1.0000  0.67914  0.74376  0.15389  0.0000
N4  N  1.0000  0.38841  0.38960  0.14823  0.0000
N5  N  1.0000  0.26245  0.52468  0.14380  0.0000
N6  N  1.0000  0.48305  0.73723  0.15925  0.0000
Ta1  Ta  1.0000  0.43341  0.55305  0.19811  0.0000
W1  W  1.0000  0.63233  0.57698  0.19581  0.0000
