data_CNTaY
_audit_creation_method           'pos2cif.pl'
_cell_length_a               12.3170003891
_cell_length_b               12.3170003891315
_cell_length_c               20
_cell_angle_alpha            90
_cell_angle_beta             90
_cell_angle_gamma            120.010002136348
_symmetry_space_group_H-M        'P1'
_symmetry_Int_Tables_number      '1'
_symmetry_cell_setting           'triclinic'
loop_
_symmetry_equiv_pos_as_xyz
x,y,z

loop_
_atom_site_label
_atom_site_type_symbol
_atom_site_occupancy
_atom_site_fract_x
_atom_site_fract_y
_atom_site_fract_z
_atom_site_U_iso_or_equiv
C1  C  1.0000  0.00031  0.20051  0.13805  0.0000
C2  C  1.0000  0.06456  0.13148  0.13756  0.0000
C3  C  1.0000  0.19709  0.19644  0.13513  0.0000
C4  C  1.0000  0.26265  0.12823  0.13487  0.0000
C5  C  1.0000  0.39513  0.19508  0.13305  0.0000
C6  C  1.0000  0.46486  0.13167  0.13570  0.0000
C7  C  1.0000  0.59821  0.20149  0.13660  0.0000
C8  C  1.0000  0.66724  0.13644  0.13824  0.0000
C9  C  1.0000  0.80026  0.20349  0.13851  0.0000
C10  C  1.0000  0.86739  0.13630  0.13865  0.0000
C11  C  1.0000  -0.00091  0.40032  0.13998  0.0000
C12  C  1.0000  0.06663  0.33298  0.13775  0.0000
C13  C  1.0000  0.19971  0.39744  0.13543  0.0000
C14  C  1.0000  0.26405  0.32851  0.13347  0.0000
C15  C  1.0000  0.46013  0.32709  0.13221  0.0000
C16  C  1.0000  0.65991  0.33411  0.13971  0.0000
C17  C  1.0000  0.79592  0.40440  0.14450  0.0000
C18  C  1.0000  0.86553  0.33740  0.14065  0.0000
C19  C  1.0000  0.00187  0.60033  0.14678  0.0000
C20  C  1.0000  0.07036  0.53344  0.14229  0.0000
C21  C  1.0000  0.20549  0.59594  0.14113  0.0000
C22  C  1.0000  0.86663  0.53801  0.15064  0.0000
C23  C  1.0000  0.00042  0.79981  0.14621  0.0000
C24  C  1.0000  0.06873  0.73298  0.14649  0.0000
C25  C  1.0000  0.20236  0.79698  0.14506  0.0000
C26  C  1.0000  0.27151  0.72970  0.14654  0.0000
C27  C  1.0000  0.40560  0.80319  0.15154  0.0000
C28  C  1.0000  0.60618  0.80949  0.15223  0.0000
C29  C  1.0000  0.79898  0.80058  0.15104  0.0000
C30  C  1.0000  0.86713  0.73352  0.15250  0.0000
C31  C  1.0000  -0.00115  -0.00173  0.14048  0.0000
C32  C  1.0000  0.06540  0.93144  0.14156  0.0000
C33  C  1.0000  0.19848  -0.00355  0.13888  0.0000
C34  C  1.0000  0.26670  0.93051  0.14145  0.0000
C35  C  1.0000  0.39960  -0.00113  0.13987  0.0000
C36  C  1.0000  0.46820  0.93433  0.14487  0.0000
C37  C  1.0000  0.60219  0.00402  0.14133  0.0000
C38  C  1.0000  0.67090  0.94009  0.14198  0.0000
C39  C  1.0000  0.80237  0.00379  0.14052  0.0000
C40  C  1.0000  0.86612  0.93273  0.14359  0.0000
N1  N  1.0000  0.58738  0.39215  0.13928  0.0000
N2  N  1.0000  0.80480  0.60514  0.16038  0.0000
N3  N  1.0000  0.66570  0.73787  0.16144  0.0000
N4  N  1.0000  0.39675  0.39592  0.12979  0.0000
N5  N  1.0000  0.27103  0.52828  0.13354  0.0000
N6  N  1.0000  0.47755  0.74593  0.16065  0.0000
Ta1  Ta  1.0000  0.46819  0.59364  0.12096  0.0000
Y1  Y  1.0000  0.61291  0.54436  0.20886  0.0000
