data_CNTaZn
_audit_creation_method           'pos2cif.pl'
_cell_length_a               12.3170003891
_cell_length_b               12.3170003891315
_cell_length_c               20
_cell_angle_alpha            90
_cell_angle_beta             90
_cell_angle_gamma            120.010002136348
_symmetry_space_group_H-M        'P1'
_symmetry_Int_Tables_number      '1'
_symmetry_cell_setting           'triclinic'
loop_
_symmetry_equiv_pos_as_xyz
x,y,z

loop_
_atom_site_label
_atom_site_type_symbol
_atom_site_occupancy
_atom_site_fract_x
_atom_site_fract_y
_atom_site_fract_z
_atom_site_U_iso_or_equiv
C1  C  1.0000  -0.00022  0.20062  0.14240  0.0000
C2  C  1.0000  0.06328  0.13111  0.13971  0.0000
C3  C  1.0000  0.19599  0.19600  0.14092  0.0000
C4  C  1.0000  0.26168  0.12831  0.13654  0.0000
C5  C  1.0000  0.39452  0.19570  0.13797  0.0000
C6  C  1.0000  0.46413  0.13231  0.13592  0.0000
C7  C  1.0000  0.59740  0.20208  0.13934  0.0000
C8  C  1.0000  0.66665  0.13773  0.13767  0.0000
C9  C  1.0000  0.79969  0.20396  0.14212  0.0000
C10  C  1.0000  0.86723  0.13713  0.14035  0.0000
C11  C  1.0000  -0.00108  0.40039  0.14846  0.0000
C12  C  1.0000  0.06617  0.33309  0.14648  0.0000
C13  C  1.0000  0.19918  0.39717  0.14913  0.0000
C14  C  1.0000  0.26287  0.32755  0.14695  0.0000
C15  C  1.0000  0.46006  0.32647  0.14654  0.0000
C16  C  1.0000  0.65860  0.33400  0.14803  0.0000
C17  C  1.0000  0.79527  0.40412  0.15115  0.0000
C18  C  1.0000  0.86469  0.33738  0.14771  0.0000
C19  C  1.0000  0.00225  0.60068  0.14656  0.0000
C20  C  1.0000  0.07067  0.53367  0.14762  0.0000
C21  C  1.0000  0.20592  0.59594  0.14655  0.0000
C22  C  1.0000  0.86724  0.53860  0.15231  0.0000
C23  C  1.0000  -0.00154  0.79912  0.13943  0.0000
C24  C  1.0000  0.06782  0.73287  0.14169  0.0000
C25  C  1.0000  0.20163  0.79681  0.13761  0.0000
C26  C  1.0000  0.27137  0.72989  0.13869  0.0000
C27  C  1.0000  0.40526  0.80283  0.13211  0.0000
C28  C  1.0000  0.60714  0.81273  0.13113  0.0000
C29  C  1.0000  0.79401  0.79792  0.13842  0.0000
C30  C  1.0000  0.86466  0.73205  0.14472  0.0000
C31  C  1.0000  -0.00280  -0.00227  0.13706  0.0000
C32  C  1.0000  0.06386  0.93102  0.13564  0.0000
C33  C  1.0000  0.19717  0.99633  0.13429  0.0000
C34  C  1.0000  0.26559  0.93032  0.13389  0.0000
C35  C  1.0000  0.39858  -0.00078  0.13301  0.0000
C36  C  1.0000  0.46753  0.93493  0.13174  0.0000
C37  C  1.0000  0.60139  0.00573  0.13358  0.0000
C38  C  1.0000  0.67091  0.94291  0.13458  0.0000
C39  C  1.0000  0.80235  0.00481  0.13712  0.0000
C40  C  1.0000  0.86397  0.93197  0.13709  0.0000
N1  N  1.0000  0.58584  0.38988  0.15431  0.0000
N2  N  1.0000  0.80612  0.60616  0.15747  0.0000
N3  N  1.0000  0.66157  0.73880  0.13298  0.0000
N4  N  1.0000  0.39481  0.39358  0.15091  0.0000
N5  N  1.0000  0.27091  0.52797  0.15271  0.0000
N6  N  1.0000  0.47751  0.74551  0.12930  0.0000
Ta1  Ta  1.0000  0.47270  0.58559  0.15871  0.0000
Zn1  Zn  1.0000  0.64646  0.55050  0.21331  0.0000
