data_CNTaZr
_audit_creation_method           'pos2cif.pl'
_cell_length_a               12.3170003891
_cell_length_b               12.3170003891315
_cell_length_c               20
_cell_angle_alpha            90
_cell_angle_beta             90
_cell_angle_gamma            120.010002136348
_symmetry_space_group_H-M        'P1'
_symmetry_Int_Tables_number      '1'
_symmetry_cell_setting           'triclinic'
loop_
_symmetry_equiv_pos_as_xyz
x,y,z

loop_
_atom_site_label
_atom_site_type_symbol
_atom_site_occupancy
_atom_site_fract_x
_atom_site_fract_y
_atom_site_fract_z
_atom_site_U_iso_or_equiv
C1  C  1.0000  -0.00128  0.19990  0.13354  0.0000
C2  C  1.0000  0.06537  0.13296  0.13249  0.0000
C3  C  1.0000  0.19741  0.19687  0.13513  0.0000
C4  C  1.0000  0.26414  0.12987  0.13556  0.0000
C5  C  1.0000  0.39656  0.19691  0.13887  0.0000
C6  C  1.0000  0.46517  0.13144  0.14065  0.0000
C7  C  1.0000  0.59788  0.20218  0.14287  0.0000
C8  C  1.0000  0.66611  0.13579  0.13955  0.0000
C9  C  1.0000  0.79883  0.20307  0.13788  0.0000
C10  C  1.0000  0.86619  0.13587  0.13395  0.0000
C11  C  1.0000  -0.00332  0.39971  0.13919  0.0000
C12  C  1.0000  0.06336  0.33193  0.13644  0.0000
C13  C  1.0000  0.19582  0.39615  0.13965  0.0000
C14  C  1.0000  0.26265  0.32825  0.14047  0.0000
C15  C  1.0000  0.45902  0.32788  0.14681  0.0000
C16  C  1.0000  0.65861  0.33575  0.14829  0.0000
C17  C  1.0000  0.79421  0.40464  0.14548  0.0000
C18  C  1.0000  0.86281  0.33655  0.14065  0.0000
C19  C  1.0000  0.00088  0.60092  0.14095  0.0000
C20  C  1.0000  0.06729  0.53272  0.14108  0.0000
C21  C  1.0000  0.20163  0.59455  0.14418  0.0000
C22  C  1.0000  0.86639  0.53923  0.14366  0.0000
C23  C  1.0000  0.00410  0.80177  0.13645  0.0000
C24  C  1.0000  0.07085  0.73391  0.13950  0.0000
C25  C  1.0000  0.20466  0.79709  0.14130  0.0000
C26  C  1.0000  0.27330  0.72890  0.14577  0.0000
C27  C  1.0000  0.40862  0.79750  0.14810  0.0000
C28  C  1.0000  0.60867  0.80602  0.14324  0.0000
C29  C  1.0000  0.80417  0.80521  0.13712  0.0000
C30  C  1.0000  0.87131  0.73690  0.13841  0.0000
C31  C  1.0000  0.00214  0.00085  0.13210  0.0000
C32  C  1.0000  0.06866  0.93376  0.13399  0.0000
C33  C  1.0000  0.20114  -0.00220  0.13556  0.0000
C34  C  1.0000  0.26849  0.93058  0.13913  0.0000
C35  C  1.0000  0.40109  0.99777  0.14053  0.0000
C36  C  1.0000  0.46936  0.93123  0.14268  0.0000
C37  C  1.0000  0.60195  0.00231  0.13927  0.0000
C38  C  1.0000  0.67033  0.93695  0.13597  0.0000
C39  C  1.0000  0.80298  0.00370  0.13292  0.0000
C40  C  1.0000  0.87001  0.93688  0.13291  0.0000
N1  N  1.0000  0.58580  0.39448  0.15619  0.0000
N2  N  1.0000  0.80543  0.60796  0.14545  0.0000
N3  N  1.0000  0.67433  0.74203  0.14450  0.0000
N4  N  1.0000  0.39245  0.39285  0.15097  0.0000
N5  N  1.0000  0.26295  0.52539  0.14711  0.0000
N6  N  1.0000  0.48180  0.73821  0.15581  0.0000
Ta1  Ta  1.0000  0.42517  0.55624  0.19840  0.0000
Zr1  Zr  1.0000  0.64154  0.58171  0.20124  0.0000
