data_CNTc
_audit_creation_method           'pos2cif.pl'
_cell_length_a               12.3170003891
_cell_length_b               12.3170003891315
_cell_length_c               20
_cell_angle_alpha            90
_cell_angle_beta             90
_cell_angle_gamma            120.010002136348
_symmetry_space_group_H-M        'P1'
_symmetry_Int_Tables_number      '1'
_symmetry_cell_setting           'triclinic'
loop_
_symmetry_equiv_pos_as_xyz
x,y,z

loop_
_atom_site_label
_atom_site_type_symbol
_atom_site_occupancy
_atom_site_fract_x
_atom_site_fract_y
_atom_site_fract_z
_atom_site_U_iso_or_equiv
C1  C  1.0000  0.99926  0.20080  0.13824  0.0000
C2  C  1.0000  0.06419  0.13180  0.13629  0.0000
C3  C  1.0000  0.19472  0.19292  0.12706  0.0000
C4  C  1.0000  0.26103  0.12466  0.12834  0.0000
C5  C  1.0000  0.39271  0.18897  0.12803  0.0000
C6  C  1.0000  0.46384  0.12823  0.13616  0.0000
C7  C  1.0000  0.59685  0.20197  0.13992  0.0000
C8  C  1.0000  0.66666  0.13810  0.14517  0.0000
C9  C  1.0000  0.79954  0.20579  0.14488  0.0000
C10  C  1.0000  0.86820  0.13961  0.14640  0.0000
C11  C  1.0000  0.99686  0.40072  0.13953  0.0000
C12  C  1.0000  0.06354  0.33229  0.13460  0.0000
C13  C  1.0000  0.19581  0.39523  0.12971  0.0000
C14  C  1.0000  0.25951  0.32343  0.12277  0.0000
C15  C  1.0000  0.45342  0.31946  0.12689  0.0000
C16  C  1.0000  0.65635  0.33512  0.14141  0.0000
C17  C  1.0000  0.79250  0.40619  0.14435  0.0000
C18  C  1.0000  0.86264  0.33908  0.14249  0.0000
C19  C  1.0000  -0.00022  0.60067  0.14584  0.0000
C20  C  1.0000  0.06752  0.53308  0.14137  0.0000
C21  C  1.0000  0.20328  0.59286  0.14003  0.0000
C22  C  1.0000  0.86400  0.54086  0.14778  0.0000
C23  C  1.0000  0.00371  0.80158  0.15006  0.0000
C24  C  1.0000  0.07042  0.73306  0.14649  0.0000
C25  C  1.0000  0.20465  0.79469  0.14355  0.0000
C26  C  1.0000  0.27476  0.72752  0.14335  0.0000
C27  C  1.0000  0.41090  0.79859  0.14681  0.0000
C28  C  1.0000  0.61427  0.81470  0.16157  0.0000
C29  C  1.0000  0.80815  0.81075  0.16350  0.0000
C30  C  1.0000  0.87166  0.73878  0.15660  0.0000
C31  C  1.0000  0.00273  0.00164  0.14554  0.0000
C32  C  1.0000  0.06784  0.93282  0.14443  0.0000
C33  C  1.0000  0.19904  0.99400  0.13680  0.0000
C34  C  1.0000  0.26774  0.92793  0.13994  0.0000
C35  C  1.0000  0.40064  0.99556  0.14038  0.0000
C36  C  1.0000  0.47042  0.93178  0.14669  0.0000
C37  C  1.0000  0.60349  0.00548  0.14969  0.0000
C38  C  1.0000  0.67490  0.94497  0.15766  0.0000
C39  C  1.0000  0.80643  0.00914  0.15537  0.0000
C40  C  1.0000  0.87262  0.94082  0.15634  0.0000
N1  N  1.0000  0.57974  0.38989  0.14070  0.0000
N2  N  1.0000  0.80391  0.61043  0.15365  0.0000
N3  N  1.0000  0.67945  0.75229  0.17041  0.0000
N4  N  1.0000  0.38857  0.38228  0.11917  0.0000
N5  N  1.0000  0.26352  0.52334  0.13456  0.0000
N6  N  1.0000  0.48732  0.74375  0.14953  0.0000
Tc1  Tc  1.0000  0.46413  0.57024  0.12920  0.0000
Tc2  Tc  1.0000  0.60383  0.56327  0.16269  0.0000
