data_CNTcTi
_audit_creation_method           'pos2cif.pl'
_cell_length_a               12.3170003891
_cell_length_b               12.3170003891315
_cell_length_c               20
_cell_angle_alpha            90
_cell_angle_beta             90
_cell_angle_gamma            120.010002136348
_symmetry_space_group_H-M        'P1'
_symmetry_Int_Tables_number      '1'
_symmetry_cell_setting           'triclinic'
loop_
_symmetry_equiv_pos_as_xyz
x,y,z

loop_
_atom_site_label
_atom_site_type_symbol
_atom_site_occupancy
_atom_site_fract_x
_atom_site_fract_y
_atom_site_fract_z
_atom_site_U_iso_or_equiv
C1  C  1.0000  0.00006  0.20107  0.14131  0.0000
C2  C  1.0000  0.06479  0.13196  0.14042  0.0000
C3  C  1.0000  0.19532  0.19232  0.14089  0.0000
C4  C  1.0000  0.26177  0.12480  0.14113  0.0000
C5  C  1.0000  0.39321  0.18927  0.14223  0.0000
C6  C  1.0000  0.46422  0.12826  0.14293  0.0000
C7  C  1.0000  0.59752  0.20224  0.14358  0.0000
C8  C  1.0000  0.66731  0.13873  0.14340  0.0000
C9  C  1.0000  0.80006  0.20592  0.14298  0.0000
C10  C  1.0000  0.86839  0.13963  0.14188  0.0000
C11  C  1.0000  0.99749  0.40081  0.14352  0.0000
C12  C  1.0000  0.06425  0.33246  0.14249  0.0000
C13  C  1.0000  0.19635  0.39420  0.14297  0.0000
C14  C  1.0000  0.25979  0.32210  0.14240  0.0000
C15  C  1.0000  0.45480  0.31948  0.14332  0.0000
C16  C  1.0000  0.65692  0.33530  0.14405  0.0000
C17  C  1.0000  0.79292  0.40554  0.14423  0.0000
C18  C  1.0000  0.86316  0.33895  0.14359  0.0000
C19  C  1.0000  -0.00022  0.60050  0.14410  0.0000
C20  C  1.0000  0.06791  0.53305  0.14412  0.0000
C21  C  1.0000  0.20404  0.59372  0.14428  0.0000
C22  C  1.0000  0.86351  0.54034  0.14436  0.0000
C23  C  1.0000  0.00313  0.80052  0.14240  0.0000
C24  C  1.0000  0.07027  0.73270  0.14333  0.0000
C25  C  1.0000  0.20468  0.79474  0.14333  0.0000
C26  C  1.0000  0.27500  0.72824  0.14420  0.0000
C27  C  1.0000  0.41111  0.79903  0.14433  0.0000
C28  C  1.0000  0.61393  0.81579  0.14415  0.0000
C29  C  1.0000  0.80796  0.81087  0.14303  0.0000
C30  C  1.0000  0.87061  0.73777  0.14327  0.0000
C31  C  1.0000  0.00319  0.00124  0.14051  0.0000
C32  C  1.0000  0.06770  0.93205  0.14105  0.0000
C33  C  1.0000  0.19945  0.99374  0.14125  0.0000
C34  C  1.0000  0.26788  0.92782  0.14248  0.0000
C35  C  1.0000  0.40071  0.99559  0.14304  0.0000
C36  C  1.0000  0.47063  0.93208  0.14376  0.0000
C37  C  1.0000  0.60370  0.00621  0.14348  0.0000
C38  C  1.0000  0.67468  0.94531  0.14311  0.0000
C39  C  1.0000  0.80619  0.00874  0.14196  0.0000
C40  C  1.0000  0.87263  0.94073  0.14151  0.0000
N1  N  1.0000  0.58286  0.39162  0.14431  0.0000
N2  N  1.0000  0.80211  0.60888  0.14444  0.0000
N3  N  1.0000  0.68042  0.75472  0.14456  0.0000
N4  N  1.0000  0.38755  0.38017  0.14381  0.0000
N5  N  1.0000  0.26392  0.52325  0.14416  0.0000
N6  N  1.0000  0.48615  0.74330  0.14497  0.0000
Tc1  Tc  1.0000  0.44981  0.56153  0.14553  0.0000
Ti1  Ti  1.0000  0.60719  0.57386  0.14585  0.0000
