data_CNTcV
_audit_creation_method           'pos2cif.pl'
_cell_length_a               12.3170003891
_cell_length_b               12.3170003891315
_cell_length_c               20
_cell_angle_alpha            90
_cell_angle_beta             90
_cell_angle_gamma            120.010002136348
_symmetry_space_group_H-M        'P1'
_symmetry_Int_Tables_number      '1'
_symmetry_cell_setting           'triclinic'
loop_
_symmetry_equiv_pos_as_xyz
x,y,z

loop_
_atom_site_label
_atom_site_type_symbol
_atom_site_occupancy
_atom_site_fract_x
_atom_site_fract_y
_atom_site_fract_z
_atom_site_U_iso_or_equiv
C1  C  1.0000  -0.00032  0.20100  0.13416  0.0000
C2  C  1.0000  0.06540  0.13275  0.13246  0.0000
C3  C  1.0000  0.19591  0.19398  0.14113  0.0000
C4  C  1.0000  0.26222  0.12608  0.14144  0.0000
C5  C  1.0000  0.39342  0.19081  0.14717  0.0000
C6  C  1.0000  0.46433  0.12930  0.14400  0.0000
C7  C  1.0000  0.59758  0.20280  0.14457  0.0000
C8  C  1.0000  0.66685  0.13831  0.13898  0.0000
C9  C  1.0000  0.79956  0.20545  0.13703  0.0000
C10  C  1.0000  0.86770  0.13893  0.13179  0.0000
C11  C  1.0000  0.99693  0.40048  0.14326  0.0000
C12  C  1.0000  0.06351  0.33194  0.14177  0.0000
C13  C  1.0000  0.19536  0.39442  0.14922  0.0000
C14  C  1.0000  0.25980  0.32284  0.15259  0.0000
C15  C  1.0000  0.45386  0.32028  0.15711  0.0000
C16  C  1.0000  0.65698  0.33602  0.14902  0.0000
C17  C  1.0000  0.79290  0.40574  0.14608  0.0000
C18  C  1.0000  0.86249  0.33849  0.14185  0.0000
C19  C  1.0000  0.00031  0.60088  0.14417  0.0000
C20  C  1.0000  0.06738  0.53283  0.14624  0.0000
C21  C  1.0000  0.20289  0.59309  0.14899  0.0000
C22  C  1.0000  0.86471  0.54093  0.14499  0.0000
C23  C  1.0000  0.00415  0.80109  0.13543  0.0000
C24  C  1.0000  0.07090  0.73316  0.14079  0.0000
C25  C  1.0000  0.20532  0.79530  0.14240  0.0000
C26  C  1.0000  0.27497  0.72833  0.14728  0.0000
C27  C  1.0000  0.41105  0.79915  0.14744  0.0000
C28  C  1.0000  0.61341  0.81312  0.14056  0.0000
C29  C  1.0000  0.80688  0.80884  0.13371  0.0000
C30  C  1.0000  0.87155  0.73753  0.13692  0.0000
C31  C  1.0000  0.00330  0.00142  0.12878  0.0000
C32  C  1.0000  0.06845  0.93279  0.13217  0.0000
C33  C  1.0000  0.20013  0.99494  0.13678  0.0000
C34  C  1.0000  0.26828  0.92857  0.14024  0.0000
C35  C  1.0000  0.40102  0.99638  0.14162  0.0000
C36  C  1.0000  0.47056  0.93197  0.14190  0.0000
C37  C  1.0000  0.60352  0.00531  0.13770  0.0000
C38  C  1.0000  0.67368  0.94302  0.13323  0.0000
C39  C  1.0000  0.80523  0.00748  0.12894  0.0000
C40  C  1.0000  0.87164  0.93913  0.12833  0.0000
N1  N  1.0000  0.58261  0.39282  0.15640  0.0000
N2  N  1.0000  0.80440  0.60981  0.14342  0.0000
N3  N  1.0000  0.67857  0.74959  0.14036  0.0000
N4  N  1.0000  0.38628  0.38027  0.16627  0.0000
N5  N  1.0000  0.26169  0.52266  0.15213  0.0000
N6  N  1.0000  0.48716  0.74411  0.15339  0.0000
Tc1  Tc  1.0000  0.45275  0.56650  0.17221  0.0000
V1  V  1.0000  0.60976  0.57053  0.15553  0.0000
