data_CNTcW
_audit_creation_method           'pos2cif.pl'
_cell_length_a               12.3170003891
_cell_length_b               12.3170003891315
_cell_length_c               20
_cell_angle_alpha            90
_cell_angle_beta             90
_cell_angle_gamma            120.010002136348
_symmetry_space_group_H-M        'P1'
_symmetry_Int_Tables_number      '1'
_symmetry_cell_setting           'triclinic'
loop_
_symmetry_equiv_pos_as_xyz
x,y,z

loop_
_atom_site_label
_atom_site_type_symbol
_atom_site_occupancy
_atom_site_fract_x
_atom_site_fract_y
_atom_site_fract_z
_atom_site_U_iso_or_equiv
C1  C  1.0000  -0.00123  0.20026  0.13684  0.0000
C2  C  1.0000  0.06418  0.13166  0.13492  0.0000
C3  C  1.0000  0.19471  0.19296  0.12469  0.0000
C4  C  1.0000  0.26138  0.12478  0.12614  0.0000
C5  C  1.0000  0.39330  0.18946  0.12533  0.0000
C6  C  1.0000  0.46403  0.12856  0.13498  0.0000
C7  C  1.0000  0.59724  0.20231  0.13906  0.0000
C8  C  1.0000  0.66671  0.13805  0.14495  0.0000
C9  C  1.0000  0.79942  0.20556  0.14453  0.0000
C10  C  1.0000  0.86785  0.13888  0.14610  0.0000
C11  C  1.0000  0.99651  0.40058  0.13895  0.0000
C12  C  1.0000  0.06265  0.33172  0.13305  0.0000
C13  C  1.0000  0.19514  0.39518  0.12797  0.0000
C14  C  1.0000  0.25978  0.32341  0.11917  0.0000
C15  C  1.0000  0.45397  0.32008  0.12280  0.0000
C16  C  1.0000  0.65660  0.33541  0.14056  0.0000
C17  C  1.0000  0.79225  0.40604  0.14425  0.0000
C18  C  1.0000  0.86209  0.33867  0.14212  0.0000
C19  C  1.0000  -0.00016  0.60081  0.14682  0.0000
C20  C  1.0000  0.06668  0.53276  0.14155  0.0000
C21  C  1.0000  0.20233  0.59237  0.14053  0.0000
C22  C  1.0000  0.86432  0.54126  0.14909  0.0000
C23  C  1.0000  0.00479  0.80209  0.15141  0.0000
C24  C  1.0000  0.07093  0.73324  0.14766  0.0000
C25  C  1.0000  0.20544  0.79501  0.14409  0.0000
C26  C  1.0000  0.27529  0.72773  0.14390  0.0000
C27  C  1.0000  0.41163  0.79871  0.14678  0.0000
C28  C  1.0000  0.61357  0.81437  0.16411  0.0000
C29  C  1.0000  0.80926  0.81131  0.16698  0.0000
C30  C  1.0000  0.87277  0.73927  0.15934  0.0000
C31  C  1.0000  0.00300  0.00163  0.14533  0.0000
C32  C  1.0000  0.06851  0.93317  0.14452  0.0000
C33  C  1.0000  0.19964  0.99444  0.13602  0.0000
C34  C  1.0000  0.26818  0.92824  0.13973  0.0000
C35  C  1.0000  0.40105  0.99602  0.14007  0.0000
C36  C  1.0000  0.47067  0.93195  0.14685  0.0000
C37  C  1.0000  0.60366  0.00542  0.15026  0.0000
C38  C  1.0000  0.67465  0.94456  0.15977  0.0000
C39  C  1.0000  0.80652  0.00905  0.15668  0.0000
C40  C  1.0000  0.87310  0.94082  0.15767  0.0000
N1  N  1.0000  0.57976  0.39099  0.13944  0.0000
N2  N  1.0000  0.80514  0.61081  0.15663  0.0000
N3  N  1.0000  0.67998  0.75208  0.17583  0.0000
N4  N  1.0000  0.38892  0.38218  0.11327  0.0000
N5  N  1.0000  0.26084  0.52254  0.13504  0.0000
N6  N  1.0000  0.48876  0.74406  0.14902  0.0000
Tc1  Tc  1.0000  0.45843  0.56760  0.12615  0.0000
W1  W  1.0000  0.60281  0.56310  0.17098  0.0000
