data_CNTcZn
_audit_creation_method           'pos2cif.pl'
_cell_length_a               12.3170003891
_cell_length_b               12.3170003891315
_cell_length_c               20
_cell_angle_alpha            90
_cell_angle_beta             90
_cell_angle_gamma            120.010002136348
_symmetry_space_group_H-M        'P1'
_symmetry_Int_Tables_number      '1'
_symmetry_cell_setting           'triclinic'
loop_
_symmetry_equiv_pos_as_xyz
x,y,z

loop_
_atom_site_label
_atom_site_type_symbol
_atom_site_occupancy
_atom_site_fract_x
_atom_site_fract_y
_atom_site_fract_z
_atom_site_U_iso_or_equiv
C1  C  1.0000  -0.00001  0.20035  0.14023  0.0000
C2  C  1.0000  0.06381  0.13099  0.13752  0.0000
C3  C  1.0000  0.19630  0.19495  0.13800  0.0000
C4  C  1.0000  0.26189  0.12718  0.13469  0.0000
C5  C  1.0000  0.39392  0.19388  0.13589  0.0000
C6  C  1.0000  0.46435  0.13161  0.13542  0.0000
C7  C  1.0000  0.59765  0.20170  0.13870  0.0000
C8  C  1.0000  0.66721  0.13820  0.13795  0.0000
C9  C  1.0000  0.80027  0.20473  0.14098  0.0000
C10  C  1.0000  0.86806  0.13795  0.13908  0.0000
C11  C  1.0000  0.99870  0.40030  0.14673  0.0000
C12  C  1.0000  0.06550  0.33233  0.14415  0.0000
C13  C  1.0000  0.19781  0.39521  0.14607  0.0000
C14  C  1.0000  0.26358  0.32636  0.14342  0.0000
C15  C  1.0000  0.45748  0.32457  0.14335  0.0000
C16  C  1.0000  0.65836  0.33361  0.14622  0.0000
C17  C  1.0000  0.79476  0.40432  0.14972  0.0000
C18  C  1.0000  0.86442  0.33767  0.14602  0.0000
C19  C  1.0000  0.00199  0.60041  0.14753  0.0000
C20  C  1.0000  0.06988  0.53305  0.14753  0.0000
C21  C  1.0000  0.20552  0.59479  0.14745  0.0000
C22  C  1.0000  0.86688  0.53879  0.15232  0.0000
C23  C  1.0000  0.00027  0.79971  0.14047  0.0000
C24  C  1.0000  0.06875  0.73281  0.14322  0.0000
C25  C  1.0000  0.20275  0.79617  0.14041  0.0000
C26  C  1.0000  0.27275  0.72977  0.14335  0.0000
C27  C  1.0000  0.40746  0.80359  0.14080  0.0000
C28  C  1.0000  0.61009  0.81549  0.14054  0.0000
C29  C  1.0000  0.79597  0.80004  0.14166  0.0000
C30  C  1.0000  0.86718  0.73450  0.14607  0.0000
C31  C  1.0000  -0.00149  -0.00193  0.13640  0.0000
C32  C  1.0000  0.06519  0.93126  0.13581  0.0000
C33  C  1.0000  0.19788  0.99522  0.13420  0.0000
C34  C  1.0000  0.26635  0.92957  0.13568  0.0000
C35  C  1.0000  0.39944  0.99887  0.13485  0.0000
C36  C  1.0000  0.46904  0.93575  0.13654  0.0000
C37  C  1.0000  0.60225  0.00634  0.13635  0.0000
C38  C  1.0000  0.67286  0.94433  0.13726  0.0000
C39  C  1.0000  0.80413  0.00620  0.13741  0.0000
C40  C  1.0000  0.86567  0.93365  0.13798  0.0000
N1  N  1.0000  0.58405  0.38749  0.15076  0.0000
N2  N  1.0000  0.80741  0.60815  0.15739  0.0000
N3  N  1.0000  0.66430  0.74125  0.14262  0.0000
N4  N  1.0000  0.39417  0.39114  0.14717  0.0000
N5  N  1.0000  0.26726  0.52450  0.14994  0.0000
N6  N  1.0000  0.48196  0.75011  0.14442  0.0000
Tc1  Tc  1.0000  0.45702  0.58208  0.15296  0.0000
Zn1  Zn  1.0000  0.63602  0.55214  0.18871  0.0000
