data_CNTcZr
_audit_creation_method           'pos2cif.pl'
_cell_length_a               12.3170003891
_cell_length_b               12.3170003891315
_cell_length_c               20
_cell_angle_alpha            90
_cell_angle_beta             90
_cell_angle_gamma            120.010002136348
_symmetry_space_group_H-M        'P1'
_symmetry_Int_Tables_number      '1'
_symmetry_cell_setting           'triclinic'
loop_
_symmetry_equiv_pos_as_xyz
x,y,z

loop_
_atom_site_label
_atom_site_type_symbol
_atom_site_occupancy
_atom_site_fract_x
_atom_site_fract_y
_atom_site_fract_z
_atom_site_U_iso_or_equiv
C1  C  1.0000  0.00017  0.20128  0.12967  0.0000
C2  C  1.0000  0.06610  0.13337  0.12605  0.0000
C3  C  1.0000  0.19677  0.19475  0.13403  0.0000
C4  C  1.0000  0.26272  0.12658  0.13355  0.0000
C5  C  1.0000  0.39386  0.19200  0.14057  0.0000
C6  C  1.0000  0.46437  0.12954  0.13902  0.0000
C7  C  1.0000  0.59761  0.20198  0.14223  0.0000
C8  C  1.0000  0.66694  0.13793  0.13601  0.0000
C9  C  1.0000  0.79982  0.20519  0.13524  0.0000
C10  C  1.0000  0.86778  0.13877  0.12810  0.0000
C11  C  1.0000  0.99722  0.40009  0.14445  0.0000
C12  C  1.0000  0.06417  0.33204  0.13970  0.0000
C13  C  1.0000  0.19561  0.39357  0.14835  0.0000
C14  C  1.0000  0.26000  0.32278  0.14858  0.0000
C15  C  1.0000  0.45388  0.32031  0.15524  0.0000
C16  C  1.0000  0.65703  0.33412  0.15157  0.0000
C17  C  1.0000  0.79341  0.40489  0.15022  0.0000
C18  C  1.0000  0.86315  0.33788  0.14310  0.0000
C19  C  1.0000  0.00059  0.60061  0.14777  0.0000
C20  C  1.0000  0.06779  0.53261  0.14914  0.0000
C21  C  1.0000  0.20339  0.59382  0.15267  0.0000
C22  C  1.0000  0.86517  0.53965  0.15098  0.0000
C23  C  1.0000  0.00350  0.80078  0.13508  0.0000
C24  C  1.0000  0.07061  0.73311  0.14218  0.0000
C25  C  1.0000  0.20467  0.79528  0.14204  0.0000
C26  C  1.0000  0.27456  0.72846  0.14908  0.0000
C27  C  1.0000  0.41068  0.79923  0.14753  0.0000
C28  C  1.0000  0.61195  0.81307  0.14106  0.0000
C29  C  1.0000  0.80732  0.80959  0.13413  0.0000
C30  C  1.0000  0.87116  0.73799  0.13976  0.0000
C31  C  1.0000  0.00341  0.00151  0.12341  0.0000
C32  C  1.0000  0.06804  0.93222  0.12767  0.0000
C33  C  1.0000  0.20019  0.99495  0.13069  0.0000
C34  C  1.0000  0.26797  0.92844  0.13612  0.0000
C35  C  1.0000  0.40078  0.99639  0.13699  0.0000
C36  C  1.0000  0.47012  0.93171  0.13880  0.0000
C37  C  1.0000  0.60299  0.00503  0.13397  0.0000
C38  C  1.0000  0.67254  0.94226  0.13019  0.0000
C39  C  1.0000  0.80476  0.00698  0.12529  0.0000
C40  C  1.0000  0.87212  0.93964  0.12500  0.0000
N1  N  1.0000  0.58224  0.38870  0.16236  0.0000
N2  N  1.0000  0.80480  0.60963  0.15242  0.0000
N3  N  1.0000  0.67999  0.75339  0.14345  0.0000
N4  N  1.0000  0.38565  0.38046  0.16565  0.0000
N5  N  1.0000  0.26184  0.52201  0.15749  0.0000
N6  N  1.0000  0.48587  0.74366  0.15605  0.0000
Tc1  Tc  1.0000  0.44156  0.56340  0.18152  0.0000
Zr1  Zr  1.0000  0.62016  0.57952  0.18775  0.0000
