data_CNTi
_audit_creation_method           'pos2cif.pl'
_cell_length_a               12.3170003891
_cell_length_b               12.3170003891315
_cell_length_c               20
_cell_angle_alpha            90
_cell_angle_beta             90
_cell_angle_gamma            120.010002136348
_symmetry_space_group_H-M        'P1'
_symmetry_Int_Tables_number      '1'
_symmetry_cell_setting           'triclinic'
loop_
_symmetry_equiv_pos_as_xyz
x,y,z

loop_
_atom_site_label
_atom_site_type_symbol
_atom_site_occupancy
_atom_site_fract_x
_atom_site_fract_y
_atom_site_fract_z
_atom_site_U_iso_or_equiv
C1  C  1.0000  0.00127  0.20138  0.14252  0.0000
C2  C  1.0000  0.06661  0.13352  0.14250  0.0000
C3  C  1.0000  0.19972  0.19923  0.14147  0.0000
C4  C  1.0000  0.26375  0.12927  0.14152  0.0000
C5  C  1.0000  0.39591  0.19484  0.13958  0.0000
C6  C  1.0000  0.46522  0.13095  0.14082  0.0000
C7  C  1.0000  0.59858  0.20039  0.14037  0.0000
C8  C  1.0000  0.66742  0.13558  0.14307  0.0000
C9  C  1.0000  0.80047  0.20335  0.14267  0.0000
C10  C  1.0000  0.86819  0.13666  0.14324  0.0000
C11  C  1.0000  -0.00098  0.40051  0.14146  0.0000
C12  C  1.0000  0.06708  0.33362  0.14122  0.0000
C13  C  1.0000  0.20075  0.39945  0.13833  0.0000
C14  C  1.0000  0.26747  0.33180  0.13930  0.0000
C15  C  1.0000  0.46084  0.32616  0.13539  0.0000
C16  C  1.0000  0.66083  0.33301  0.13903  0.0000
C17  C  1.0000  0.79570  0.40413  0.14293  0.0000
C18  C  1.0000  0.86507  0.33695  0.14227  0.0000
C19  C  1.0000  -0.00055  0.60043  0.14457  0.0000
C20  C  1.0000  0.06791  0.53334  0.14155  0.0000
C21  C  1.0000  0.20351  0.59550  0.13934  0.0000
C22  C  1.0000  0.86384  0.53833  0.14694  0.0000
C23  C  1.0000  0.00027  0.80010  0.14478  0.0000
C24  C  1.0000  0.06837  0.73325  0.14471  0.0000
C25  C  1.0000  0.20230  0.79682  0.14422  0.0000
C26  C  1.0000  0.27166  0.72966  0.14367  0.0000
C27  C  1.0000  0.40656  0.80082  0.14769  0.0000
C28  C  1.0000  0.60655  0.80767  0.15111  0.0000
C29  C  1.0000  0.79988  0.80197  0.14677  0.0000
C30  C  1.0000  0.86660  0.73429  0.14773  0.0000
C31  C  1.0000  0.00078  0.00022  0.14333  0.0000
C32  C  1.0000  0.06611  0.93235  0.14339  0.0000
C33  C  1.0000  0.19920  0.99712  0.14295  0.0000
C34  C  1.0000  0.26692  0.93045  0.14382  0.0000
C35  C  1.0000  0.39998  0.99825  0.14359  0.0000
C36  C  1.0000  0.46882  0.93344  0.14637  0.0000
C37  C  1.0000  0.60221  0.00289  0.14590  0.0000
C38  C  1.0000  0.67152  0.93901  0.14704  0.0000
C39  C  1.0000  0.80366  0.00453  0.14477  0.0000
C40  C  1.0000  0.86766  0.93453  0.14454  0.0000
N1  N  1.0000  0.58893  0.39073  0.13490  0.0000
N2  N  1.0000  0.79981  0.60503  0.15291  0.0000
N3  N  1.0000  0.66634  0.73582  0.15271  0.0000
N4  N  1.0000  0.40106  0.39801  0.13355  0.0000
N5  N  1.0000  0.26756  0.52879  0.13333  0.0000
N6  N  1.0000  0.47847  0.74310  0.15169  0.0000
Ti1  Ti  1.0000  0.46027  0.58770  0.11044  0.0000
Ti2  Ti  1.0000  0.60691  0.54620  0.17594  0.0000
