data_CNTiV
_audit_creation_method           'pos2cif.pl'
_cell_length_a               12.3170003891
_cell_length_b               12.3170003891315
_cell_length_c               20
_cell_angle_alpha            90
_cell_angle_beta             90
_cell_angle_gamma            120.010002136348
_symmetry_space_group_H-M        'P1'
_symmetry_Int_Tables_number      '1'
_symmetry_cell_setting           'triclinic'
loop_
_symmetry_equiv_pos_as_xyz
x,y,z

loop_
_atom_site_label
_atom_site_type_symbol
_atom_site_occupancy
_atom_site_fract_x
_atom_site_fract_y
_atom_site_fract_z
_atom_site_U_iso_or_equiv
C1  C  1.0000  0.00078  0.20112  0.14159  0.0000
C2  C  1.0000  0.06580  0.13307  0.14063  0.0000
C3  C  1.0000  0.19851  0.19793  0.14025  0.0000
C4  C  1.0000  0.26298  0.12852  0.13965  0.0000
C5  C  1.0000  0.39520  0.19401  0.14051  0.0000
C6  C  1.0000  0.46467  0.13048  0.14186  0.0000
C7  C  1.0000  0.59797  0.20005  0.14283  0.0000
C8  C  1.0000  0.66725  0.13574  0.14255  0.0000
C9  C  1.0000  0.80017  0.20332  0.14276  0.0000
C10  C  1.0000  0.86791  0.13685  0.14212  0.0000
C11  C  1.0000  0.99874  0.40030  0.14225  0.0000
C12  C  1.0000  0.06669  0.33328  0.14120  0.0000
C13  C  1.0000  0.19982  0.39821  0.13904  0.0000
C14  C  1.0000  0.26623  0.33027  0.14035  0.0000
C15  C  1.0000  0.45943  0.32477  0.14255  0.0000
C16  C  1.0000  0.65985  0.33198  0.14626  0.0000
C17  C  1.0000  0.79539  0.40373  0.14661  0.0000
C18  C  1.0000  0.86507  0.33702  0.14382  0.0000
C19  C  1.0000  0.00015  0.60041  0.14451  0.0000
C20  C  1.0000  0.06830  0.53326  0.14234  0.0000
C21  C  1.0000  0.20338  0.59558  0.13991  0.0000
C22  C  1.0000  0.86492  0.53794  0.14768  0.0000
C23  C  1.0000  0.00047  0.80056  0.14247  0.0000
C24  C  1.0000  0.06830  0.73314  0.14312  0.0000
C25  C  1.0000  0.20196  0.79667  0.14238  0.0000
C26  C  1.0000  0.27132  0.72967  0.14262  0.0000
C27  C  1.0000  0.40617  0.80165  0.14546  0.0000
C28  C  1.0000  0.60684  0.80910  0.14797  0.0000
C29  C  1.0000  0.79977  0.80271  0.14449  0.0000
C30  C  1.0000  0.86760  0.73565  0.14560  0.0000
C31  C  1.0000  0.00032  0.00002  0.14070  0.0000
C32  C  1.0000  0.06593  0.93248  0.14059  0.0000
C33  C  1.0000  0.19879  0.99677  0.14021  0.0000
C34  C  1.0000  0.26656  0.93022  0.14156  0.0000
C35  C  1.0000  0.39932  0.99799  0.14222  0.0000
C36  C  1.0000  0.46833  0.93356  0.14418  0.0000
C37  C  1.0000  0.60191  0.00330  0.14338  0.0000
C38  C  1.0000  0.67140  0.94004  0.14375  0.0000
C39  C  1.0000  0.80339  0.00486  0.14242  0.0000
C40  C  1.0000  0.86748  0.93492  0.14199  0.0000
N1  N  1.0000  0.58682  0.38831  0.15047  0.0000
N2  N  1.0000  0.80305  0.60642  0.15153  0.0000
N3  N  1.0000  0.66649  0.73876  0.15114  0.0000
N4  N  1.0000  0.39923  0.39511  0.13919  0.0000
N5  N  1.0000  0.26718  0.52823  0.13451  0.0000
N6  N  1.0000  0.47839  0.74440  0.14832  0.0000
Ti1  Ti  1.0000  0.45493  0.58254  0.11712  0.0000
V1  V  1.0000  0.62589  0.55622  0.17327  0.0000
