data_CNTiW
_audit_creation_method           'pos2cif.pl'
_cell_length_a               12.3170003891
_cell_length_b               12.3170003891315
_cell_length_c               20
_cell_angle_alpha            90
_cell_angle_beta             90
_cell_angle_gamma            120.010002136348
_symmetry_space_group_H-M        'P1'
_symmetry_Int_Tables_number      '1'
_symmetry_cell_setting           'triclinic'
loop_
_symmetry_equiv_pos_as_xyz
x,y,z

loop_
_atom_site_label
_atom_site_type_symbol
_atom_site_occupancy
_atom_site_fract_x
_atom_site_fract_y
_atom_site_fract_z
_atom_site_U_iso_or_equiv
C1  C  1.0000  0.00194  0.20245  0.13934  0.0000
C2  C  1.0000  0.06794  0.13506  0.13889  0.0000
C3  C  1.0000  0.20076  0.19982  0.14168  0.0000
C4  C  1.0000  0.26358  0.12864  0.14272  0.0000
C5  C  1.0000  0.39525  0.19263  0.14725  0.0000
C6  C  1.0000  0.46518  0.12915  0.14659  0.0000
C7  C  1.0000  0.59840  0.19877  0.14812  0.0000
C8  C  1.0000  0.66758  0.13478  0.14307  0.0000
C9  C  1.0000  0.80080  0.20397  0.14199  0.0000
C10  C  1.0000  0.86896  0.13809  0.13844  0.0000
C11  C  1.0000  -0.00123  0.40097  0.14429  0.0000
C12  C  1.0000  0.06717  0.33434  0.14270  0.0000
C13  C  1.0000  0.20068  0.39932  0.14713  0.0000
C14  C  1.0000  0.26791  0.33225  0.14585  0.0000
C15  C  1.0000  0.45885  0.32197  0.15486  0.0000
C16  C  1.0000  0.66072  0.33103  0.15131  0.0000
C17  C  1.0000  0.79490  0.40441  0.14576  0.0000
C18  C  1.0000  0.86485  0.33750  0.14414  0.0000
C19  C  1.0000  -0.00222  0.60061  0.14217  0.0000
C20  C  1.0000  0.06690  0.53369  0.14559  0.0000
C21  C  1.0000  0.20237  0.59515  0.14949  0.0000
C22  C  1.0000  0.86169  0.53869  0.14087  0.0000
C23  C  1.0000  0.00112  0.80085  0.13840  0.0000
C24  C  1.0000  0.06834  0.73327  0.14113  0.0000
C25  C  1.0000  0.20254  0.79636  0.14299  0.0000
C26  C  1.0000  0.27220  0.72922  0.14596  0.0000
C27  C  1.0000  0.40757  0.79955  0.14267  0.0000
C28  C  1.0000  0.60885  0.80818  0.13343  0.0000
C29  C  1.0000  0.80342  0.80597  0.13273  0.0000
C30  C  1.0000  0.86813  0.73697  0.13545  0.0000
C31  C  1.0000  0.00263  0.00208  0.13727  0.0000
C32  C  1.0000  0.06698  0.93313  0.13864  0.0000
C33  C  1.0000  0.19956  -0.00317  0.14102  0.0000
C34  C  1.0000  0.26710  0.92967  0.14235  0.0000
C35  C  1.0000  0.40023  -0.00320  0.14332  0.0000
C36  C  1.0000  0.46934  0.93215  0.14115  0.0000
C37  C  1.0000  0.60282  0.00237  0.13959  0.0000
C38  C  1.0000  0.67266  0.93920  0.13507  0.0000
C39  C  1.0000  0.80502  0.00625  0.13508  0.0000
C40  C  1.0000  0.87003  0.93773  0.13477  0.0000
N1  N  1.0000  0.58719  0.38669  0.15754  0.0000
N2  N  1.0000  0.79751  0.60739  0.13529  0.0000
N3  N  1.0000  0.67094  0.73915  0.12821  0.0000
N4  N  1.0000  0.40094  0.39655  0.15670  0.0000
N5  N  1.0000  0.26580  0.52773  0.15581  0.0000
N6  N  1.0000  0.48082  0.74217  0.14192  0.0000
Ti1  Ti  1.0000  0.45349  0.58567  0.18617  0.0000
W1  W  1.0000  0.59881  0.54590  0.12701  0.0000
