data_CNTiY
_audit_creation_method           'pos2cif.pl'
_cell_length_a               12.3170003891
_cell_length_b               12.3170003891315
_cell_length_c               20
_cell_angle_alpha            90
_cell_angle_beta             90
_cell_angle_gamma            120.010002136348
_symmetry_space_group_H-M        'P1'
_symmetry_Int_Tables_number      '1'
_symmetry_cell_setting           'triclinic'
loop_
_symmetry_equiv_pos_as_xyz
x,y,z

loop_
_atom_site_label
_atom_site_type_symbol
_atom_site_occupancy
_atom_site_fract_x
_atom_site_fract_y
_atom_site_fract_z
_atom_site_U_iso_or_equiv
C1  C  1.0000  0.00070  0.20073  0.14225  0.0000
C2  C  1.0000  0.06555  0.13253  0.14205  0.0000
C3  C  1.0000  0.19842  0.19805  0.14201  0.0000
C4  C  1.0000  0.26321  0.12894  0.14136  0.0000
C5  C  1.0000  0.39547  0.19493  0.14083  0.0000
C6  C  1.0000  0.46493  0.13131  0.14127  0.0000
C7  C  1.0000  0.59838  0.20097  0.14162  0.0000
C8  C  1.0000  0.66716  0.13610  0.14158  0.0000
C9  C  1.0000  0.80026  0.20306  0.14198  0.0000
C10  C  1.0000  0.86781  0.13616  0.14183  0.0000
C11  C  1.0000  -0.00099  0.40012  0.14145  0.0000
C12  C  1.0000  0.06672  0.33300  0.14133  0.0000
C13  C  1.0000  0.19989  0.39848  0.13894  0.0000
C14  C  1.0000  0.26604  0.33043  0.14151  0.0000
C15  C  1.0000  0.46045  0.32643  0.14123  0.0000
C16  C  1.0000  0.66054  0.33334  0.14394  0.0000
C17  C  1.0000  0.79615  0.40368  0.14511  0.0000
C18  C  1.0000  0.86523  0.33638  0.14284  0.0000
C19  C  1.0000  0.00093  0.60009  0.14341  0.0000
C20  C  1.0000  0.06876  0.53297  0.14097  0.0000
C21  C  1.0000  0.20381  0.59537  0.13816  0.0000
C22  C  1.0000  0.86659  0.53748  0.14695  0.0000
C23  C  1.0000  0.00046  0.80011  0.14332  0.0000
C24  C  1.0000  0.06850  0.73318  0.14308  0.0000
C25  C  1.0000  0.20206  0.79694  0.14199  0.0000
C26  C  1.0000  0.27141  0.72978  0.14117  0.0000
C27  C  1.0000  0.40585  0.80180  0.14393  0.0000
C28  C  1.0000  0.60576  0.80946  0.14445  0.0000
C29  C  1.0000  0.79819  0.80021  0.14331  0.0000
C30  C  1.0000  0.86659  0.73372  0.14618  0.0000
C31  C  1.0000  -0.00043  -0.00079  0.14208  0.0000
C32  C  1.0000  0.06570  0.93194  0.14195  0.0000
C33  C  1.0000  0.19877  -0.00310  0.14160  0.0000
C34  C  1.0000  0.26660  0.93052  0.14185  0.0000
C35  C  1.0000  0.39962  -0.00124  0.14181  0.0000
C36  C  1.0000  0.46844  0.93411  0.14291  0.0000
C37  C  1.0000  0.60176  0.00372  0.14198  0.0000
C38  C  1.0000  0.67097  0.93991  0.14155  0.0000
C39  C  1.0000  0.80325  0.00412  0.14137  0.0000
C40  C  1.0000  0.86676  0.93373  0.14205  0.0000
N1  N  1.0000  0.58831  0.39133  0.14568  0.0000
N2  N  1.0000  0.80394  0.60468  0.15351  0.0000
N3  N  1.0000  0.66387  0.73670  0.14631  0.0000
N4  N  1.0000  0.39933  0.39629  0.14054  0.0000
N5  N  1.0000  0.26724  0.52799  0.13270  0.0000
N6  N  1.0000  0.47790  0.74430  0.14656  0.0000
Ti1  Ti  1.0000  0.45708  0.58351  0.11427  0.0000
Y1  Y  1.0000  0.62309  0.55766  0.20316  0.0000
