data_CNTiZn
_audit_creation_method           'pos2cif.pl'
_cell_length_a               12.3170003891
_cell_length_b               12.3170003891315
_cell_length_c               20
_cell_angle_alpha            90
_cell_angle_beta             90
_cell_angle_gamma            120.010002136348
_symmetry_space_group_H-M        'P1'
_symmetry_Int_Tables_number      '1'
_symmetry_cell_setting           'triclinic'
loop_
_symmetry_equiv_pos_as_xyz
x,y,z

loop_
_atom_site_label
_atom_site_type_symbol
_atom_site_occupancy
_atom_site_fract_x
_atom_site_fract_y
_atom_site_fract_z
_atom_site_U_iso_or_equiv
C1  C  1.0000  -0.00028  0.20070  0.14223  0.0000
C2  C  1.0000  0.06398  0.13189  0.13993  0.0000
C3  C  1.0000  0.19725  0.19762  0.14010  0.0000
C4  C  1.0000  0.26263  0.12925  0.13633  0.0000
C5  C  1.0000  0.39524  0.19596  0.13687  0.0000
C6  C  1.0000  0.46430  0.13212  0.13605  0.0000
C7  C  1.0000  0.59761  0.20173  0.13910  0.0000
C8  C  1.0000  0.66647  0.13710  0.13859  0.0000
C9  C  1.0000  0.79949  0.20357  0.14221  0.0000
C10  C  1.0000  0.86705  0.13680  0.14100  0.0000
C11  C  1.0000  0.99875  0.40043  0.14681  0.0000
C12  C  1.0000  0.06614  0.33329  0.14512  0.0000
C13  C  1.0000  0.19977  0.39888  0.14687  0.0000
C14  C  1.0000  0.26555  0.32993  0.14434  0.0000
C15  C  1.0000  0.46098  0.32799  0.14320  0.0000
C16  C  1.0000  0.65865  0.33422  0.14600  0.0000
C17  C  1.0000  0.79510  0.40396  0.14943  0.0000
C18  C  1.0000  0.86415  0.33710  0.14648  0.0000
C19  C  1.0000  0.00172  0.60079  0.14579  0.0000
C20  C  1.0000  0.06932  0.53339  0.14615  0.0000
C21  C  1.0000  0.20479  0.59533  0.14554  0.0000
C22  C  1.0000  0.86691  0.53903  0.15103  0.0000
C23  C  1.0000  -0.00099  0.79960  0.14016  0.0000
C24  C  1.0000  0.06801  0.73323  0.14203  0.0000
C25  C  1.0000  0.20204  0.79707  0.13874  0.0000
C26  C  1.0000  0.27152  0.73018  0.13967  0.0000
C27  C  1.0000  0.40578  0.80149  0.13452  0.0000
C28  C  1.0000  0.60611  0.81025  0.13415  0.0000
C29  C  1.0000  0.79361  0.79785  0.13984  0.0000
C30  C  1.0000  0.86485  0.73209  0.14490  0.0000
C31  C  1.0000  -0.00227  -0.00167  0.13812  0.0000
C32  C  1.0000  0.06453  0.93170  0.13681  0.0000
C33  C  1.0000  0.19776  0.99685  0.13527  0.0000
C34  C  1.0000  0.26584  0.93054  0.13527  0.0000
C35  C  1.0000  0.39886  0.99880  0.13449  0.0000
C36  C  1.0000  0.46764  0.93437  0.13408  0.0000
C37  C  1.0000  0.60122  0.00462  0.13566  0.0000
C38  C  1.0000  0.67044  0.94139  0.13680  0.0000
C39  C  1.0000  0.80204  0.00425  0.13875  0.0000
C40  C  1.0000  0.86416  0.93206  0.13858  0.0000
N1  N  1.0000  0.58694  0.39139  0.15034  0.0000
N2  N  1.0000  0.80572  0.60606  0.15590  0.0000
N3  N  1.0000  0.66160  0.73749  0.13614  0.0000
N4  N  1.0000  0.39703  0.39491  0.14628  0.0000
N5  N  1.0000  0.26835  0.52852  0.15001  0.0000
N6  N  1.0000  0.47730  0.74405  0.13168  0.0000
Ti1  Ti  1.0000  0.47029  0.58479  0.16059  0.0000
Zn1  Zn  1.0000  0.64307  0.54819  0.21402  0.0000
