data_CNTiZr
_audit_creation_method           'pos2cif.pl'
_cell_length_a               12.3170003891
_cell_length_b               12.3170003891315
_cell_length_c               20
_cell_angle_alpha            90
_cell_angle_beta             90
_cell_angle_gamma            120.010002136348
_symmetry_space_group_H-M        'P1'
_symmetry_Int_Tables_number      '1'
_symmetry_cell_setting           'triclinic'
loop_
_symmetry_equiv_pos_as_xyz
x,y,z

loop_
_atom_site_label
_atom_site_type_symbol
_atom_site_occupancy
_atom_site_fract_x
_atom_site_fract_y
_atom_site_fract_z
_atom_site_U_iso_or_equiv
C1  C  1.0000  -0.00042  0.20040  0.13808  0.0000
C2  C  1.0000  0.06642  0.13376  0.13785  0.0000
C3  C  1.0000  0.19880  0.19851  0.13870  0.0000
C4  C  1.0000  0.26457  0.13048  0.13732  0.0000
C5  C  1.0000  0.39712  0.19671  0.13759  0.0000
C6  C  1.0000  0.46568  0.13141  0.13858  0.0000
C7  C  1.0000  0.59856  0.20153  0.14029  0.0000
C8  C  1.0000  0.66672  0.13534  0.13903  0.0000
C9  C  1.0000  0.79948  0.20277  0.13889  0.0000
C10  C  1.0000  0.86686  0.13570  0.13803  0.0000
C11  C  1.0000  -0.00263  0.40001  0.13868  0.0000
C12  C  1.0000  0.06437  0.33234  0.13840  0.0000
C13  C  1.0000  0.19750  0.39812  0.13902  0.0000
C14  C  1.0000  0.26611  0.33111  0.14044  0.0000
C15  C  1.0000  0.46029  0.32795  0.14263  0.0000
C16  C  1.0000  0.66007  0.33477  0.14468  0.0000
C17  C  1.0000  0.79523  0.40430  0.14295  0.0000
C18  C  1.0000  0.86374  0.33627  0.13992  0.0000
C19  C  1.0000  0.00049  0.60116  0.13953  0.0000
C20  C  1.0000  0.06648  0.53311  0.13867  0.0000
C21  C  1.0000  0.20060  0.59553  0.13981  0.0000
C22  C  1.0000  0.86649  0.53873  0.14224  0.0000
C23  C  1.0000  0.00343  0.80202  0.13950  0.0000
C24  C  1.0000  0.07026  0.73426  0.13951  0.0000
C25  C  1.0000  0.20403  0.79775  0.13993  0.0000
C26  C  1.0000  0.27252  0.72980  0.14219  0.0000
C27  C  1.0000  0.40792  0.79819  0.14519  0.0000
C28  C  1.0000  0.60701  0.80530  0.14602  0.0000
C29  C  1.0000  0.80297  0.80428  0.14313  0.0000
C30  C  1.0000  0.87058  0.73677  0.14226  0.0000
C31  C  1.0000  0.00211  0.00116  0.13800  0.0000
C32  C  1.0000  0.06837  0.93402  0.13813  0.0000
C33  C  1.0000  0.20101  -0.00159  0.13755  0.0000
C34  C  1.0000  0.26835  0.93119  0.13865  0.0000
C35  C  1.0000  0.40110  0.99804  0.13881  0.0000
C36  C  1.0000  0.46918  0.93161  0.14097  0.0000
C37  C  1.0000  0.60210  0.00200  0.13966  0.0000
C38  C  1.0000  0.67050  0.93675  0.13977  0.0000
C39  C  1.0000  0.80316  0.00354  0.13855  0.0000
C40  C  1.0000  0.86976  0.93641  0.13960  0.0000
N1  N  1.0000  0.58783  0.39375  0.15084  0.0000
N2  N  1.0000  0.80535  0.60705  0.14677  0.0000
N3  N  1.0000  0.67198  0.74004  0.14960  0.0000
N4  N  1.0000  0.39773  0.39561  0.14511  0.0000
N5  N  1.0000  0.26177  0.52765  0.14047  0.0000
N6  N  1.0000  0.47931  0.73836  0.15279  0.0000
Ti1  Ti  1.0000  0.41769  0.55609  0.18853  0.0000
Zr1  Zr  1.0000  0.63846  0.57112  0.19909  0.0000
