data_CNV
_audit_creation_method           'pos2cif.pl'
_cell_length_a               12.3170003891
_cell_length_b               12.3170003891315
_cell_length_c               20
_cell_angle_alpha            90
_cell_angle_beta             90
_cell_angle_gamma            120.010002136348
_symmetry_space_group_H-M        'P1'
_symmetry_Int_Tables_number      '1'
_symmetry_cell_setting           'triclinic'
loop_
_symmetry_equiv_pos_as_xyz
x,y,z

loop_
_atom_site_label
_atom_site_type_symbol
_atom_site_occupancy
_atom_site_fract_x
_atom_site_fract_y
_atom_site_fract_z
_atom_site_U_iso_or_equiv
C1  C  1.0000  0.00031  0.20049  0.13909  0.0000
C2  C  1.0000  0.06534  0.13243  0.13798  0.0000
C3  C  1.0000  0.19785  0.19690  0.13865  0.0000
C4  C  1.0000  0.26304  0.12834  0.13700  0.0000
C5  C  1.0000  0.39514  0.19396  0.13762  0.0000
C6  C  1.0000  0.46484  0.13099  0.13737  0.0000
C7  C  1.0000  0.59838  0.20096  0.13894  0.0000
C8  C  1.0000  0.66746  0.13642  0.13803  0.0000
C9  C  1.0000  0.80024  0.20364  0.13951  0.0000
C10  C  1.0000  0.86787  0.13692  0.13853  0.0000
C11  C  1.0000  0.99851  0.40022  0.14333  0.0000
C12  C  1.0000  0.06574  0.33245  0.14138  0.0000
C13  C  1.0000  0.19817  0.39678  0.14264  0.0000
C14  C  1.0000  0.26521  0.32869  0.14173  0.0000
C15  C  1.0000  0.45842  0.32479  0.14266  0.0000
C16  C  1.0000  0.65998  0.33269  0.14453  0.0000
C17  C  1.0000  0.79553  0.40402  0.14637  0.0000
C18  C  1.0000  0.86477  0.33703  0.14290  0.0000
C19  C  1.0000  0.00047  0.60054  0.14609  0.0000
C20  C  1.0000  0.06793  0.53308  0.14484  0.0000
C21  C  1.0000  0.20296  0.59538  0.14475  0.0000
C22  C  1.0000  0.86587  0.53825  0.14923  0.0000
C23  C  1.0000  0.00111  0.80069  0.14216  0.0000
C24  C  1.0000  0.06891  0.73339  0.14366  0.0000
C25  C  1.0000  0.20248  0.79671  0.14179  0.0000
C26  C  1.0000  0.27197  0.72997  0.14381  0.0000
C27  C  1.0000  0.40724  0.80281  0.14373  0.0000
C28  C  1.0000  0.60836  0.81022  0.14635  0.0000
C29  C  1.0000  0.80021  0.80298  0.14518  0.0000
C30  C  1.0000  0.86857  0.73620  0.14648  0.0000
C31  C  1.0000  0.00039  -0.00031  0.13814  0.0000
C32  C  1.0000  0.06629  0.93240  0.13860  0.0000
C33  C  1.0000  0.19894  0.99641  0.13733  0.0000
C34  C  1.0000  0.26691  0.93031  0.13858  0.0000
C35  C  1.0000  0.39984  0.99854  0.13764  0.0000
C36  C  1.0000  0.46905  0.93450  0.13941  0.0000
C37  C  1.0000  0.60241  0.00389  0.13825  0.0000
C38  C  1.0000  0.67198  0.94049  0.13979  0.0000
C39  C  1.0000  0.80384  0.00509  0.13887  0.0000
C40  C  1.0000  0.86788  0.93520  0.14007  0.0000
N1  N  1.0000  0.58689  0.38912  0.15007  0.0000
N2  N  1.0000  0.80479  0.60721  0.15387  0.0000
N3  N  1.0000  0.66833  0.74030  0.15200  0.0000
N4  N  1.0000  0.39689  0.39229  0.14396  0.0000
N5  N  1.0000  0.26419  0.52622  0.14488  0.0000
N6  N  1.0000  0.47996  0.74700  0.14858  0.0000
V1  V  1.0000  0.44604  0.57809  0.14996  0.0000
V2  V  1.0000  0.62956  0.55648  0.17562  0.0000
