data_CNVW
_audit_creation_method           'pos2cif.pl'
_cell_length_a               12.3170003891
_cell_length_b               12.3170003891315
_cell_length_c               20
_cell_angle_alpha            90
_cell_angle_beta             90
_cell_angle_gamma            120.010002136348
_symmetry_space_group_H-M        'P1'
_symmetry_Int_Tables_number      '1'
_symmetry_cell_setting           'triclinic'
loop_
_symmetry_equiv_pos_as_xyz
x,y,z

loop_
_atom_site_label
_atom_site_type_symbol
_atom_site_occupancy
_atom_site_fract_x
_atom_site_fract_y
_atom_site_fract_z
_atom_site_U_iso_or_equiv
C1  C  1.0000  0.00165  0.20231  0.13567  0.0000
C2  C  1.0000  0.06780  0.13494  0.13452  0.0000
C3  C  1.0000  0.20055  0.19956  0.13816  0.0000
C4  C  1.0000  0.26417  0.12892  0.13926  0.0000
C5  C  1.0000  0.39547  0.19298  0.14466  0.0000
C6  C  1.0000  0.46533  0.12967  0.14532  0.0000
C7  C  1.0000  0.59865  0.19986  0.14802  0.0000
C8  C  1.0000  0.66766  0.13552  0.14225  0.0000
C9  C  1.0000  0.80071  0.20435  0.14045  0.0000
C10  C  1.0000  0.86872  0.13809  0.13527  0.0000
C11  C  1.0000  0.99851  0.40115  0.14353  0.0000
C12  C  1.0000  0.06650  0.33405  0.14041  0.0000
C13  C  1.0000  0.19962  0.39882  0.14571  0.0000
C14  C  1.0000  0.26695  0.33117  0.14464  0.0000
C15  C  1.0000  0.45808  0.32218  0.15533  0.0000
C16  C  1.0000  0.66046  0.33200  0.15356  0.0000
C17  C  1.0000  0.79469  0.40483  0.14795  0.0000
C18  C  1.0000  0.86442  0.33784  0.14391  0.0000
C19  C  1.0000  -0.00174  0.60097  0.14405  0.0000
C20  C  1.0000  0.06690  0.53366  0.14652  0.0000
C21  C  1.0000  0.20240  0.59486  0.15076  0.0000
C22  C  1.0000  0.86217  0.53961  0.14362  0.0000
C23  C  1.0000  0.00218  0.80133  0.13757  0.0000
C24  C  1.0000  0.06913  0.73358  0.14200  0.0000
C25  C  1.0000  0.20354  0.79646  0.14409  0.0000
C26  C  1.0000  0.27316  0.72946  0.14892  0.0000
C27  C  1.0000  0.40896  0.79978  0.14748  0.0000
C28  C  1.0000  0.60930  0.80803  0.13681  0.0000
C29  C  1.0000  0.80391  0.80609  0.13193  0.0000
C30  C  1.0000  0.86912  0.73722  0.13575  0.0000
C31  C  1.0000  0.00303  0.00224  0.13330  0.0000
C32  C  1.0000  0.06776  0.93354  0.13570  0.0000
C33  C  1.0000  0.20021  0.99693  0.13820  0.0000
C34  C  1.0000  0.26774  0.92986  0.14154  0.0000
C35  C  1.0000  0.40078  0.99709  0.14283  0.0000
C36  C  1.0000  0.46992  0.93224  0.14275  0.0000
C37  C  1.0000  0.60311  0.00276  0.13965  0.0000
C38  C  1.0000  0.67255  0.93915  0.13423  0.0000
C39  C  1.0000  0.80494  0.00619  0.13202  0.0000
C40  C  1.0000  0.87037  0.93779  0.13175  0.0000
N1  N  1.0000  0.58634  0.38728  0.16246  0.0000
N2  N  1.0000  0.79923  0.60833  0.13861  0.0000
N3  N  1.0000  0.67179  0.73959  0.13031  0.0000
N4  N  1.0000  0.39810  0.39402  0.15871  0.0000
N5  N  1.0000  0.26451  0.52660  0.15487  0.0000
N6  N  1.0000  0.48342  0.74339  0.15116  0.0000
V1  V  1.0000  0.44686  0.57789  0.18379  0.0000
W1  W  1.0000  0.59739  0.54696  0.13195  0.0000
