data_CNVY
_audit_creation_method           'pos2cif.pl'
_cell_length_a               12.3170003891
_cell_length_b               12.3170003891315
_cell_length_c               20
_cell_angle_alpha            90
_cell_angle_beta             90
_cell_angle_gamma            120.010002136348
_symmetry_space_group_H-M        'P1'
_symmetry_Int_Tables_number      '1'
_symmetry_cell_setting           'triclinic'
loop_
_symmetry_equiv_pos_as_xyz
x,y,z

loop_
_atom_site_label
_atom_site_type_symbol
_atom_site_occupancy
_atom_site_fract_x
_atom_site_fract_y
_atom_site_fract_z
_atom_site_U_iso_or_equiv
C1  C  1.0000  0.00033  0.20005  0.14230  0.0000
C2  C  1.0000  0.06481  0.13157  0.14168  0.0000
C3  C  1.0000  0.19774  0.19693  0.14152  0.0000
C4  C  1.0000  0.26302  0.12851  0.14013  0.0000
C5  C  1.0000  0.39523  0.19485  0.14074  0.0000
C6  C  1.0000  0.46482  0.13176  0.14097  0.0000
C7  C  1.0000  0.59846  0.20171  0.14203  0.0000
C8  C  1.0000  0.66735  0.13702  0.14121  0.0000
C9  C  1.0000  0.80028  0.20321  0.14245  0.0000
C10  C  1.0000  0.86773  0.13604  0.14206  0.0000
C11  C  1.0000  -0.00082  0.39993  0.14250  0.0000
C12  C  1.0000  0.06639  0.33234  0.14212  0.0000
C13  C  1.0000  0.19920  0.39736  0.14109  0.0000
C14  C  1.0000  0.26555  0.32887  0.14205  0.0000
C15  C  1.0000  0.45969  0.32643  0.14327  0.0000
C16  C  1.0000  0.66032  0.33389  0.14598  0.0000
C17  C  1.0000  0.79611  0.40347  0.14601  0.0000
C18  C  1.0000  0.86522  0.33629  0.14375  0.0000
C19  C  1.0000  0.00138  0.59987  0.14250  0.0000
C20  C  1.0000  0.06903  0.53273  0.14146  0.0000
C21  C  1.0000  0.20439  0.59509  0.13981  0.0000
C22  C  1.0000  0.86727  0.53731  0.14602  0.0000
C23  C  1.0000  0.00039  0.79987  0.14189  0.0000
C24  C  1.0000  0.06861  0.73308  0.14164  0.0000
C25  C  1.0000  0.20212  0.79670  0.14020  0.0000
C26  C  1.0000  0.27171  0.72998  0.13971  0.0000
C27  C  1.0000  0.40635  0.80324  0.13995  0.0000
C28  C  1.0000  0.60580  0.81104  0.14142  0.0000
C29  C  1.0000  0.79673  0.79900  0.14180  0.0000
C30  C  1.0000  0.86631  0.73348  0.14424  0.0000
C31  C  1.0000  -0.00116  -0.00165  0.14133  0.0000
C32  C  1.0000  0.06546  0.93150  0.14058  0.0000
C33  C  1.0000  0.19852  0.99642  0.13985  0.0000
C34  C  1.0000  0.26654  0.93050  0.13985  0.0000
C35  C  1.0000  0.39963  -0.00061  0.14017  0.0000
C36  C  1.0000  0.46878  0.93546  0.14026  0.0000
C37  C  1.0000  0.60181  0.00464  0.14034  0.0000
C38  C  1.0000  0.67112  0.94082  0.14074  0.0000
C39  C  1.0000  0.80333  0.00429  0.14144  0.0000
C40  C  1.0000  0.86597  0.93309  0.14158  0.0000
N1  N  1.0000  0.58772  0.39165  0.15038  0.0000
N2  N  1.0000  0.80477  0.60430  0.15125  0.0000
N3  N  1.0000  0.66206  0.73610  0.14415  0.0000
N4  N  1.0000  0.39807  0.39410  0.14144  0.0000
N5  N  1.0000  0.26659  0.52673  0.13873  0.0000
N6  N  1.0000  0.47882  0.74748  0.13963  0.0000
V1  V  1.0000  0.45381  0.58071  0.13158  0.0000
Y1  Y  1.0000  0.63368  0.56401  0.20613  0.0000
