data_CNVZn
_audit_creation_method           'pos2cif.pl'
_cell_length_a               12.3170003891
_cell_length_b               12.3170003891315
_cell_length_c               20
_cell_angle_alpha            90
_cell_angle_beta             90
_cell_angle_gamma            120.010002136348
_symmetry_space_group_H-M        'P1'
_symmetry_Int_Tables_number      '1'
_symmetry_cell_setting           'triclinic'
loop_
_symmetry_equiv_pos_as_xyz
x,y,z

loop_
_atom_site_label
_atom_site_type_symbol
_atom_site_occupancy
_atom_site_fract_x
_atom_site_fract_y
_atom_site_fract_z
_atom_site_U_iso_or_equiv
C1  C  1.0000  -0.00016  0.20062  0.14068  0.0000
C2  C  1.0000  0.06426  0.13180  0.13845  0.0000
C3  C  1.0000  0.19739  0.19714  0.13843  0.0000
C4  C  1.0000  0.26277  0.12882  0.13536  0.0000
C5  C  1.0000  0.39519  0.19562  0.13585  0.0000
C6  C  1.0000  0.46459  0.13197  0.13579  0.0000
C7  C  1.0000  0.59781  0.20169  0.13863  0.0000
C8  C  1.0000  0.66683  0.13724  0.13857  0.0000
C9  C  1.0000  0.79988  0.20397  0.14129  0.0000
C10  C  1.0000  0.86750  0.13719  0.13980  0.0000
C11  C  1.0000  0.99870  0.40053  0.14591  0.0000
C12  C  1.0000  0.06593  0.33308  0.14365  0.0000
C13  C  1.0000  0.19915  0.39801  0.14502  0.0000
C14  C  1.0000  0.26567  0.32929  0.14250  0.0000
C15  C  1.0000  0.46010  0.32742  0.14179  0.0000
C16  C  1.0000  0.65867  0.33434  0.14506  0.0000
C17  C  1.0000  0.79491  0.40418  0.14865  0.0000
C18  C  1.0000  0.86413  0.33733  0.14549  0.0000
C19  C  1.0000  0.00176  0.60086  0.14645  0.0000
C20  C  1.0000  0.06932  0.53337  0.14631  0.0000
C21  C  1.0000  0.20473  0.59500  0.14627  0.0000
C22  C  1.0000  0.86676  0.53914  0.15102  0.0000
C23  C  1.0000  -0.00015  0.79982  0.14034  0.0000
C24  C  1.0000  0.06850  0.73325  0.14283  0.0000
C25  C  1.0000  0.20270  0.79688  0.14030  0.0000
C26  C  1.0000  0.27218  0.73013  0.14245  0.0000
C27  C  1.0000  0.40684  0.80190  0.13949  0.0000
C28  C  1.0000  0.60746  0.81067  0.13905  0.0000
C29  C  1.0000  0.79450  0.79877  0.14047  0.0000
C30  C  1.0000  0.86602  0.73294  0.14481  0.0000
C31  C  1.0000  -0.00158  -0.00149  0.13736  0.0000
C32  C  1.0000  0.06520  0.93177  0.13665  0.0000
C33  C  1.0000  0.19817  0.99646  0.13520  0.0000
C34  C  1.0000  0.26638  0.93028  0.13627  0.0000
C35  C  1.0000  0.39944  0.99877  0.13554  0.0000
C36  C  1.0000  0.46847  0.93466  0.13673  0.0000
C37  C  1.0000  0.60182  0.00476  0.13721  0.0000
C38  C  1.0000  0.67135  0.94157  0.13810  0.0000
C39  C  1.0000  0.80283  0.00470  0.13834  0.0000
C40  C  1.0000  0.86507  0.93286  0.13838  0.0000
N1  N  1.0000  0.58631  0.39075  0.14895  0.0000
N2  N  1.0000  0.80593  0.60690  0.15544  0.0000
N3  N  1.0000  0.66335  0.73818  0.14010  0.0000
N4  N  1.0000  0.39674  0.39457  0.14519  0.0000
N5  N  1.0000  0.26726  0.52699  0.14883  0.0000
N6  N  1.0000  0.47907  0.74552  0.14074  0.0000
V1  V  1.0000  0.45966  0.58120  0.15796  0.0000
Zn1  Zn  1.0000  0.63762  0.54971  0.20425  0.0000
