data_CNVZr
_audit_creation_method           'pos2cif.pl'
_cell_length_a               12.3170003891
_cell_length_b               12.3170003891315
_cell_length_c               20
_cell_angle_alpha            90
_cell_angle_beta             90
_cell_angle_gamma            120.010002136348
_symmetry_space_group_H-M        'P1'
_symmetry_Int_Tables_number      '1'
_symmetry_cell_setting           'triclinic'
loop_
_symmetry_equiv_pos_as_xyz
x,y,z

loop_
_atom_site_label
_atom_site_type_symbol
_atom_site_occupancy
_atom_site_fract_x
_atom_site_fract_y
_atom_site_fract_z
_atom_site_U_iso_or_equiv
C1  C  1.0000  0.00123  0.20130  0.14122  0.0000
C2  C  1.0000  0.06658  0.13342  0.14128  0.0000
C3  C  1.0000  0.19954  0.19892  0.13981  0.0000
C4  C  1.0000  0.26364  0.12894  0.13995  0.0000
C5  C  1.0000  0.39561  0.19455  0.13748  0.0000
C6  C  1.0000  0.46513  0.13098  0.13891  0.0000
C7  C  1.0000  0.59867  0.20075  0.13857  0.0000
C8  C  1.0000  0.66745  0.13584  0.14136  0.0000
C9  C  1.0000  0.80055  0.20347  0.14114  0.0000
C10  C  1.0000  0.86828  0.13684  0.14182  0.0000
C11  C  1.0000  0.99905  0.40052  0.14068  0.0000
C12  C  1.0000  0.06696  0.33353  0.13999  0.0000
C13  C  1.0000  0.20046  0.39907  0.13698  0.0000
C14  C  1.0000  0.26678  0.33121  0.13756  0.0000
C15  C  1.0000  0.46039  0.32619  0.13337  0.0000
C16  C  1.0000  0.66095  0.33326  0.13797  0.0000
C17  C  1.0000  0.79588  0.40440  0.14264  0.0000
C18  C  1.0000  0.86522  0.33710  0.14129  0.0000
C19  C  1.0000  -0.00007  0.60035  0.14506  0.0000
C20  C  1.0000  0.06843  0.53337  0.14140  0.0000
C21  C  1.0000  0.20411  0.59523  0.13942  0.0000
C22  C  1.0000  0.86442  0.53826  0.14783  0.0000
C23  C  1.0000  0.00056  0.80011  0.14530  0.0000
C24  C  1.0000  0.06866  0.73317  0.14536  0.0000
C25  C  1.0000  0.20251  0.79658  0.14458  0.0000
C26  C  1.0000  0.27197  0.72951  0.14438  0.0000
C27  C  1.0000  0.40668  0.80098  0.14875  0.0000
C28  C  1.0000  0.60723  0.80854  0.15170  0.0000
C29  C  1.0000  0.80043  0.80239  0.14781  0.0000
C30  C  1.0000  0.86696  0.73445  0.14913  0.0000
C31  C  1.0000  0.00093  0.00023  0.14263  0.0000
C32  C  1.0000  0.06618  0.93222  0.14315  0.0000
C33  C  1.0000  0.19923  0.99687  0.14224  0.0000
C34  C  1.0000  0.26705  0.93035  0.14345  0.0000
C35  C  1.0000  0.40005  -0.00178  0.14258  0.0000
C36  C  1.0000  0.46891  0.93339  0.14598  0.0000
C37  C  1.0000  0.60241  0.00326  0.14453  0.0000
C38  C  1.0000  0.67180  0.93956  0.14566  0.0000
C39  C  1.0000  0.80380  0.00464  0.14350  0.0000
C40  C  1.0000  0.86804  0.93489  0.14407  0.0000
N1  N  1.0000  0.58877  0.39115  0.13389  0.0000
N2  N  1.0000  0.80082  0.60530  0.15567  0.0000
N3  N  1.0000  0.66743  0.73776  0.15530  0.0000
N4  N  1.0000  0.40053  0.39830  0.13268  0.0000
N5  N  1.0000  0.26769  0.52819  0.13291  0.0000
N6  N  1.0000  0.47893  0.74323  0.15364  0.0000
V1  V  1.0000  0.45962  0.58854  0.11854  0.0000
Zr1  Zr  1.0000  0.60057  0.54181  0.18880  0.0000
