data_CNW
_audit_creation_method           'pos2cif.pl'
_cell_length_a               12.3170003891
_cell_length_b               12.3170003891315
_cell_length_c               20
_cell_angle_alpha            90
_cell_angle_beta             90
_cell_angle_gamma            120.010002136348
_symmetry_space_group_H-M        'P1'
_symmetry_Int_Tables_number      '1'
_symmetry_cell_setting           'triclinic'
loop_
_symmetry_equiv_pos_as_xyz
x,y,z

loop_
_atom_site_label
_atom_site_type_symbol
_atom_site_occupancy
_atom_site_fract_x
_atom_site_fract_y
_atom_site_fract_z
_atom_site_U_iso_or_equiv
C1  C  1.0000  -0.00121  0.20092  0.12601  0.0000
C2  C  1.0000  0.06463  0.13268  0.12154  0.0000
C3  C  1.0000  0.19602  0.19456  0.12709  0.0000
C4  C  1.0000  0.26299  0.12710  0.12925  0.0000
C5  C  1.0000  0.39444  0.19294  0.13719  0.0000
C6  C  1.0000  0.46439  0.12949  0.13936  0.0000
C7  C  1.0000  0.59717  0.20276  0.14348  0.0000
C8  C  1.0000  0.66627  0.13748  0.13921  0.0000
C9  C  1.0000  0.79895  0.20512  0.13606  0.0000
C10  C  1.0000  0.86660  0.13819  0.12935  0.0000
C11  C  1.0000  0.99637  0.40051  0.13958  0.0000
C12  C  1.0000  0.06290  0.33233  0.13333  0.0000
C13  C  1.0000  0.19514  0.39494  0.13812  0.0000
C14  C  1.0000  0.25874  0.32309  0.13939  0.0000
C15  C  1.0000  0.45303  0.32072  0.15167  0.0000
C16  C  1.0000  0.65671  0.33575  0.15122  0.0000
C17  C  1.0000  0.79236  0.40553  0.14756  0.0000
C18  C  1.0000  0.86189  0.33814  0.14050  0.0000
C19  C  1.0000  0.00023  0.60113  0.14598  0.0000
C20  C  1.0000  0.06726  0.53270  0.14539  0.0000
C21  C  1.0000  0.20247  0.59313  0.14684  0.0000
C22  C  1.0000  0.86501  0.54073  0.14757  0.0000
C23  C  1.0000  0.00452  0.80164  0.13527  0.0000
C24  C  1.0000  0.07109  0.73340  0.14076  0.0000
C25  C  1.0000  0.20556  0.79576  0.14125  0.0000
C26  C  1.0000  0.27508  0.72832  0.14806  0.0000
C27  C  1.0000  0.41066  0.79811  0.15241  0.0000
C28  C  1.0000  0.61451  0.81333  0.15468  0.0000
C29  C  1.0000  0.80889  0.81099  0.14294  0.0000
C30  C  1.0000  0.87241  0.73913  0.14095  0.0000
C31  C  1.0000  0.00247  0.00085  0.12256  0.0000
C32  C  1.0000  0.06848  0.93282  0.12706  0.0000
C33  C  1.0000  0.20075  0.99551  0.12900  0.0000
C34  C  1.0000  0.26849  0.92873  0.13620  0.0000
C35  C  1.0000  0.40117  0.99629  0.13905  0.0000
C36  C  1.0000  0.47025  0.93108  0.14440  0.0000
C37  C  1.0000  0.60307  0.00430  0.14062  0.0000
C38  C  1.0000  0.67311  0.94090  0.13973  0.0000
C39  C  1.0000  0.80445  0.00666  0.13136  0.0000
C40  C  1.0000  0.87138  0.93918  0.12973  0.0000
N1  N  1.0000  0.58043  0.39118  0.16356  0.0000
N2  N  1.0000  0.80440  0.61032  0.14615  0.0000
N3  N  1.0000  0.68494  0.75468  0.16353  0.0000
N4  N  1.0000  0.38257  0.37932  0.16002  0.0000
N5  N  1.0000  0.26324  0.52372  0.14404  0.0000
N6  N  1.0000  0.48669  0.74257  0.16542  0.0000
W1  W  1.0000  0.44314  0.55760  0.18832  0.0000
W2  W  1.0000  0.62291  0.57483  0.18917  0.0000
