data_CNWY
_audit_creation_method           'pos2cif.pl'
_cell_length_a               12.3170003891
_cell_length_b               12.3170003891315
_cell_length_c               20
_cell_angle_alpha            90
_cell_angle_beta             90
_cell_angle_gamma            120.010002136348
_symmetry_space_group_H-M        'P1'
_symmetry_Int_Tables_number      '1'
_symmetry_cell_setting           'triclinic'
loop_
_symmetry_equiv_pos_as_xyz
x,y,z

loop_
_atom_site_label
_atom_site_type_symbol
_atom_site_occupancy
_atom_site_fract_x
_atom_site_fract_y
_atom_site_fract_z
_atom_site_U_iso_or_equiv
C1  C  1.0000  -0.00023  0.19992  0.13517  0.0000
C2  C  1.0000  0.06440  0.13119  0.13429  0.0000
C3  C  1.0000  0.19712  0.19635  0.13254  0.0000
C4  C  1.0000  0.26271  0.12822  0.13332  0.0000
C5  C  1.0000  0.39520  0.19575  0.13334  0.0000
C6  C  1.0000  0.46473  0.13200  0.13679  0.0000
C7  C  1.0000  0.59797  0.20153  0.13814  0.0000
C8  C  1.0000  0.66682  0.13645  0.13877  0.0000
C9  C  1.0000  0.79990  0.20336  0.13805  0.0000
C10  C  1.0000  0.86707  0.13601  0.13660  0.0000
C11  C  1.0000  -0.00128  0.39998  0.13942  0.0000
C12  C  1.0000  0.06576  0.33236  0.13590  0.0000
C13  C  1.0000  0.19865  0.39656  0.13418  0.0000
C14  C  1.0000  0.26377  0.32830  0.13191  0.0000
C15  C  1.0000  0.46009  0.32782  0.13401  0.0000
C16  C  1.0000  0.65961  0.33421  0.14186  0.0000
C17  C  1.0000  0.79561  0.40421  0.14560  0.0000
C18  C  1.0000  0.86490  0.33703  0.14069  0.0000
C19  C  1.0000  0.00200  0.60007  0.14658  0.0000
C20  C  1.0000  0.07025  0.53296  0.14239  0.0000
C21  C  1.0000  0.20561  0.59504  0.14194  0.0000
C22  C  1.0000  0.86693  0.53814  0.15074  0.0000
C23  C  1.0000  0.00077  0.79971  0.14440  0.0000
C24  C  1.0000  0.06905  0.73285  0.14582  0.0000
C25  C  1.0000  0.20276  0.79669  0.14525  0.0000
C26  C  1.0000  0.27209  0.72948  0.14788  0.0000
C27  C  1.0000  0.40585  0.80332  0.15388  0.0000
C28  C  1.0000  0.60745  0.81065  0.15379  0.0000
C29  C  1.0000  0.79905  0.80061  0.14906  0.0000
C30  C  1.0000  0.86741  0.73362  0.15082  0.0000
C31  C  1.0000  -0.00097  -0.00187  0.13738  0.0000
C32  C  1.0000  0.06560  0.93131  0.13913  0.0000
C33  C  1.0000  0.19868  0.99634  0.13740  0.0000
C34  C  1.0000  0.26679  0.93030  0.14152  0.0000
C35  C  1.0000  0.39970  -0.00089  0.14089  0.0000
C36  C  1.0000  0.46838  0.93467  0.14650  0.0000
C37  C  1.0000  0.60191  0.00406  0.14195  0.0000
C38  C  1.0000  0.67089  0.94012  0.14162  0.0000
C39  C  1.0000  0.80240  0.00358  0.13849  0.0000
C40  C  1.0000  0.86620  0.93272  0.14090  0.0000
N1  N  1.0000  0.58696  0.39189  0.14260  0.0000
N2  N  1.0000  0.80534  0.60553  0.15978  0.0000
N3  N  1.0000  0.66655  0.73895  0.16078  0.0000
N4  N  1.0000  0.39671  0.39713  0.13079  0.0000
N5  N  1.0000  0.26974  0.52665  0.13483  0.0000
N6  N  1.0000  0.47922  0.74732  0.16366  0.0000
W1  W  1.0000  0.46498  0.59121  0.13003  0.0000
Y1  Y  1.0000  0.61592  0.54771  0.21055  0.0000
