data_CNWZn
_audit_creation_method           'pos2cif.pl'
_cell_length_a               12.3170003891
_cell_length_b               12.3170003891315
_cell_length_c               20
_cell_angle_alpha            90
_cell_angle_beta             90
_cell_angle_gamma            120.010002136348
_symmetry_space_group_H-M        'P1'
_symmetry_Int_Tables_number      '1'
_symmetry_cell_setting           'triclinic'
loop_
_symmetry_equiv_pos_as_xyz
x,y,z

loop_
_atom_site_label
_atom_site_type_symbol
_atom_site_occupancy
_atom_site_fract_x
_atom_site_fract_y
_atom_site_fract_z
_atom_site_U_iso_or_equiv
C1  C  1.0000  -0.00010  0.20040  0.14168  0.0000
C2  C  1.0000  0.06365  0.13103  0.13898  0.0000
C3  C  1.0000  0.19646  0.19583  0.14069  0.0000
C4  C  1.0000  0.26202  0.12809  0.13640  0.0000
C5  C  1.0000  0.39452  0.19548  0.13778  0.0000
C6  C  1.0000  0.46424  0.13227  0.13549  0.0000
C7  C  1.0000  0.59761  0.20187  0.13854  0.0000
C8  C  1.0000  0.66700  0.13801  0.13631  0.0000
C9  C  1.0000  0.80005  0.20420  0.14086  0.0000
C10  C  1.0000  0.86771  0.13742  0.13882  0.0000
C11  C  1.0000  -0.00103  0.40022  0.14885  0.0000
C12  C  1.0000  0.06589  0.33258  0.14654  0.0000
C13  C  1.0000  0.19866  0.39630  0.14938  0.0000
C14  C  1.0000  0.26365  0.32732  0.14735  0.0000
C15  C  1.0000  0.45965  0.32631  0.14675  0.0000
C16  C  1.0000  0.65861  0.33354  0.14784  0.0000
C17  C  1.0000  0.79513  0.40388  0.15135  0.0000
C18  C  1.0000  0.86459  0.33729  0.14746  0.0000
C19  C  1.0000  0.00225  0.60053  0.14811  0.0000
C20  C  1.0000  0.07047  0.53334  0.14912  0.0000
C21  C  1.0000  0.20601  0.59536  0.14858  0.0000
C22  C  1.0000  0.86706  0.53862  0.15329  0.0000
C23  C  1.0000  -0.00107  0.79912  0.13980  0.0000
C24  C  1.0000  0.06816  0.73279  0.14304  0.0000
C25  C  1.0000  0.20217  0.79657  0.13933  0.0000
C26  C  1.0000  0.27217  0.72995  0.14126  0.0000
C27  C  1.0000  0.40608  0.80315  0.13426  0.0000
C28  C  1.0000  0.60854  0.81406  0.13132  0.0000
C29  C  1.0000  0.79377  0.79802  0.13790  0.0000
C30  C  1.0000  0.86510  0.73247  0.14474  0.0000
C31  C  1.0000  -0.00231  -0.00226  0.13618  0.0000
C32  C  1.0000  0.06438  0.93104  0.13557  0.0000
C33  C  1.0000  0.19748  0.99593  0.13448  0.0000
C34  C  1.0000  0.26582  0.93001  0.13469  0.0000
C35  C  1.0000  0.39888  -0.00075  0.13313  0.0000
C36  C  1.0000  0.46807  0.93548  0.13180  0.0000
C37  C  1.0000  0.60183  0.00610  0.13220  0.0000
C38  C  1.0000  0.67204  0.94392  0.13232  0.0000
C39  C  1.0000  0.80320  0.00534  0.13503  0.0000
C40  C  1.0000  0.86441  0.93222  0.13573  0.0000
N1  N  1.0000  0.58560  0.38856  0.15439  0.0000
N2  N  1.0000  0.80639  0.60665  0.15774  0.0000
N3  N  1.0000  0.66171  0.73971  0.13424  0.0000
N4  N  1.0000  0.39518  0.39356  0.15207  0.0000
N5  N  1.0000  0.26914  0.52611  0.15333  0.0000
N6  N  1.0000  0.47973  0.74805  0.13291  0.0000
W1  W  1.0000  0.46609  0.58489  0.15967  0.0000
Zn1  Zn  1.0000  0.64039  0.55053  0.20463  0.0000
