data_CNWZr
_audit_creation_method           'pos2cif.pl'
_cell_length_a               12.3170003891
_cell_length_b               12.3170003891315
_cell_length_c               20
_cell_angle_alpha            90
_cell_angle_beta             90
_cell_angle_gamma            120.010002136348
_symmetry_space_group_H-M        'P1'
_symmetry_Int_Tables_number      '1'
_symmetry_cell_setting           'triclinic'
loop_
_symmetry_equiv_pos_as_xyz
x,y,z

loop_
_atom_site_label
_atom_site_type_symbol
_atom_site_occupancy
_atom_site_fract_x
_atom_site_fract_y
_atom_site_fract_z
_atom_site_U_iso_or_equiv
C1  C  1.0000  -0.00091  0.20035  0.13230  0.0000
C2  C  1.0000  0.06541  0.13302  0.13028  0.0000
C3  C  1.0000  0.19683  0.19612  0.13466  0.0000
C4  C  1.0000  0.26349  0.12861  0.13536  0.0000
C5  C  1.0000  0.39541  0.19515  0.13992  0.0000
C6  C  1.0000  0.46474  0.13080  0.14031  0.0000
C7  C  1.0000  0.59773  0.20246  0.14248  0.0000
C8  C  1.0000  0.66629  0.13639  0.13816  0.0000
C9  C  1.0000  0.79892  0.20361  0.13707  0.0000
C10  C  1.0000  0.86664  0.13694  0.13166  0.0000
C11  C  1.0000  0.99647  0.39967  0.14322  0.0000
C12  C  1.0000  0.06328  0.33178  0.13889  0.0000
C13  C  1.0000  0.19496  0.39460  0.14417  0.0000
C14  C  1.0000  0.26071  0.32626  0.14259  0.0000
C15  C  1.0000  0.45743  0.32607  0.14892  0.0000
C16  C  1.0000  0.65781  0.33538  0.14855  0.0000
C17  C  1.0000  0.79402  0.40507  0.14757  0.0000
C18  C  1.0000  0.86291  0.33709  0.14256  0.0000
C19  C  1.0000  0.00096  0.60083  0.14573  0.0000
C20  C  1.0000  0.06746  0.53253  0.14698  0.0000
C21  C  1.0000  0.20228  0.59408  0.15072  0.0000
C22  C  1.0000  0.86588  0.53921  0.14778  0.0000
C23  C  1.0000  0.00403  0.80152  0.13686  0.0000
C24  C  1.0000  0.07099  0.73356  0.14241  0.0000
C25  C  1.0000  0.20461  0.79616  0.14308  0.0000
C26  C  1.0000  0.27360  0.72819  0.14825  0.0000
C27  C  1.0000  0.40935  0.79755  0.14705  0.0000
C28  C  1.0000  0.61053  0.80797  0.13949  0.0000
C29  C  1.0000  0.80585  0.80675  0.13344  0.0000
C30  C  1.0000  0.87158  0.73739  0.13868  0.0000
C31  C  1.0000  0.00263  0.00105  0.12893  0.0000
C32  C  1.0000  0.06841  0.93312  0.13211  0.0000
C33  C  1.0000  0.20088  0.99683  0.13450  0.0000
C34  C  1.0000  0.26851  0.92981  0.13898  0.0000
C35  C  1.0000  0.40090  0.99703  0.13980  0.0000
C36  C  1.0000  0.46946  0.93055  0.14113  0.0000
C37  C  1.0000  0.60247  0.00305  0.13694  0.0000
C38  C  1.0000  0.67150  0.93910  0.13287  0.0000
C39  C  1.0000  0.80375  0.00496  0.12925  0.0000
C40  C  1.0000  0.87109  0.93799  0.12899  0.0000
N1  N  1.0000  0.58453  0.39367  0.15545  0.0000
N2  N  1.0000  0.80505  0.60874  0.14858  0.0000
N3  N  1.0000  0.67642  0.74537  0.13826  0.0000
N4  N  1.0000  0.38970  0.38945  0.15493  0.0000
N5  N  1.0000  0.26203  0.52312  0.15484  0.0000
N6  N  1.0000  0.48364  0.73854  0.15237  0.0000
W1  W  1.0000  0.43473  0.56091  0.19072  0.0000
Zr1  Zr  1.0000  0.63206  0.58273  0.19418  0.0000
