data_CNY
_audit_creation_method           'pos2cif.pl'
_cell_length_a               12.3170003891
_cell_length_b               12.3170003891315
_cell_length_c               20
_cell_angle_alpha            90
_cell_angle_beta             90
_cell_angle_gamma            120.010002136348
_symmetry_space_group_H-M        'P1'
_symmetry_Int_Tables_number      '1'
_symmetry_cell_setting           'triclinic'
loop_
_symmetry_equiv_pos_as_xyz
x,y,z

loop_
_atom_site_label
_atom_site_type_symbol
_atom_site_occupancy
_atom_site_fract_x
_atom_site_fract_y
_atom_site_fract_z
_atom_site_U_iso_or_equiv
C1  C  1.0000  -0.00048  0.20000  0.13773  0.0000
C2  C  1.0000  0.06637  0.13344  0.13814  0.0000
C3  C  1.0000  0.19894  0.19896  0.14010  0.0000
C4  C  1.0000  0.26509  0.13130  0.13912  0.0000
C5  C  1.0000  0.39765  0.19762  0.14087  0.0000
C6  C  1.0000  0.46546  0.13201  0.14035  0.0000
C7  C  1.0000  0.59870  0.20116  0.14155  0.0000
C8  C  1.0000  0.66681  0.13500  0.13966  0.0000
C9  C  1.0000  0.79950  0.20204  0.13895  0.0000
C10  C  1.0000  0.86664  0.13490  0.13868  0.0000
C11  C  1.0000  -0.00238  0.39945  0.13448  0.0000
C12  C  1.0000  0.06467  0.33181  0.13590  0.0000
C13  C  1.0000  0.19832  0.39845  0.13667  0.0000
C14  C  1.0000  0.26755  0.33219  0.14253  0.0000
C15  C  1.0000  0.46232  0.32978  0.14906  0.0000
C16  C  1.0000  0.66030  0.33365  0.14619  0.0000
C17  C  1.0000  0.79576  0.40350  0.14028  0.0000
C18  C  1.0000  0.86422  0.33568  0.13771  0.0000
C19  C  1.0000  0.00072  0.60075  0.13241  0.0000
C20  C  1.0000  0.06642  0.53292  0.13285  0.0000
C21  C  1.0000  0.20029  0.59591  0.13470  0.0000
C22  C  1.0000  0.86686  0.53773  0.13414  0.0000
C23  C  1.0000  0.00254  0.80196  0.13469  0.0000
C24  C  1.0000  0.06958  0.73431  0.13334  0.0000
C25  C  1.0000  0.20299  0.79803  0.13656  0.0000
C26  C  1.0000  0.27144  0.73024  0.13986  0.0000
C27  C  1.0000  0.40686  0.80009  0.14569  0.0000
C28  C  1.0000  0.60499  0.80406  0.14896  0.0000
C29  C  1.0000  0.79965  0.80141  0.14229  0.0000
C30  C  1.0000  0.86877  0.73518  0.13563  0.0000
C31  C  1.0000  0.00087  0.00033  0.13791  0.0000
C32  C  1.0000  0.06776  0.93377  0.13663  0.0000
C33  C  1.0000  0.20071  -0.00111  0.13723  0.0000
C34  C  1.0000  0.26780  0.93172  0.13750  0.0000
C35  C  1.0000  0.40050  -0.00119  0.13880  0.0000
C36  C  1.0000  0.46859  0.93264  0.14116  0.0000
C37  C  1.0000  0.60184  0.00178  0.14078  0.0000
C38  C  1.0000  0.66969  0.93623  0.14145  0.0000
C39  C  1.0000  0.80229  0.00251  0.14014  0.0000
C40  C  1.0000  0.86835  0.93476  0.14040  0.0000
N1  N  1.0000  0.58975  0.39287  0.15698  0.0000
N2  N  1.0000  0.80559  0.60534  0.13374  0.0000
N3  N  1.0000  0.66818  0.73726  0.15182  0.0000
N4  N  1.0000  0.39893  0.39632  0.15183  0.0000
N5  N  1.0000  0.26142  0.52823  0.13535  0.0000
N6  N  1.0000  0.47747  0.74088  0.15634  0.0000
Y1  Y  1.0000  0.39766  0.55446  0.21234  0.0000
Y2  Y  1.0000  0.67310  0.58081  0.21245  0.0000
