data_CNYZn
_audit_creation_method           'pos2cif.pl'
_cell_length_a               12.3170003891
_cell_length_b               12.3170003891315
_cell_length_c               20
_cell_angle_alpha            90
_cell_angle_beta             90
_cell_angle_gamma            120.010002136348
_symmetry_space_group_H-M        'P1'
_symmetry_Int_Tables_number      '1'
_symmetry_cell_setting           'triclinic'
loop_
_symmetry_equiv_pos_as_xyz
x,y,z

loop_
_atom_site_label
_atom_site_type_symbol
_atom_site_occupancy
_atom_site_fract_x
_atom_site_fract_y
_atom_site_fract_z
_atom_site_U_iso_or_equiv
C1  C  1.0000  -0.00105  0.20096  0.13839  0.0000
C2  C  1.0000  0.06349  0.13216  0.13655  0.0000
C3  C  1.0000  0.19640  0.19757  0.13568  0.0000
C4  C  1.0000  0.26231  0.12940  0.13295  0.0000
C5  C  1.0000  0.39489  0.19539  0.13294  0.0000
C6  C  1.0000  0.46387  0.13195  0.13301  0.0000
C7  C  1.0000  0.59718  0.20249  0.13570  0.0000
C8  C  1.0000  0.66591  0.13775  0.13541  0.0000
C9  C  1.0000  0.79882  0.20400  0.13846  0.0000
C10  C  1.0000  0.86639  0.13716  0.13727  0.0000
C11  C  1.0000  -0.00245  0.40058  0.14440  0.0000
C12  C  1.0000  0.06478  0.33318  0.14196  0.0000
C13  C  1.0000  0.19836  0.39903  0.14449  0.0000
C14  C  1.0000  0.26483  0.33003  0.13927  0.0000
C15  C  1.0000  0.46105  0.32775  0.13783  0.0000
C16  C  1.0000  0.65762  0.33547  0.14203  0.0000
C17  C  1.0000  0.79409  0.40430  0.14668  0.0000
C18  C  1.0000  0.86298  0.33740  0.14334  0.0000
C19  C  1.0000  0.00082  0.60119  0.14523  0.0000
C20  C  1.0000  0.06760  0.53354  0.14517  0.0000
C21  C  1.0000  0.20265  0.59541  0.14694  0.0000
C22  C  1.0000  0.86627  0.53963  0.14992  0.0000
C23  C  1.0000  -0.00121  0.79997  0.14127  0.0000
C24  C  1.0000  0.06773  0.73378  0.14278  0.0000
C25  C  1.0000  0.20178  0.79752  0.13999  0.0000
C26  C  1.0000  0.27117  0.73067  0.14242  0.0000
C27  C  1.0000  0.40586  0.80184  0.13802  0.0000
C28  C  1.0000  0.60614  0.81059  0.13766  0.0000
C29  C  1.0000  0.79458  0.79922  0.14342  0.0000
C30  C  1.0000  0.86474  0.73228  0.14728  0.0000
C31  C  1.0000  -0.00227  -0.00121  0.13685  0.0000
C32  C  1.0000  0.06433  0.93198  0.13662  0.0000
C33  C  1.0000  0.19741  0.99693  0.13392  0.0000
C34  C  1.0000  0.26556  0.93075  0.13502  0.0000
C35  C  1.0000  0.39854  -0.00125  0.13319  0.0000
C36  C  1.0000  0.46735  0.93457  0.13408  0.0000
C37  C  1.0000  0.60086  0.00496  0.13389  0.0000
C38  C  1.0000  0.67030  0.94192  0.13538  0.0000
C39  C  1.0000  0.80183  0.00472  0.13657  0.0000
C40  C  1.0000  0.86446  0.93276  0.13860  0.0000
N1  N  1.0000  0.58678  0.39380  0.14492  0.0000
N2  N  1.0000  0.80524  0.60594  0.15714  0.0000
N3  N  1.0000  0.66332  0.73963  0.14331  0.0000
N4  N  1.0000  0.39570  0.39227  0.13992  0.0000
N5  N  1.0000  0.26448  0.52790  0.15209  0.0000
N6  N  1.0000  0.47766  0.74470  0.13910  0.0000
Y1  Y  1.0000  0.47176  0.57937  0.18576  0.0000
Zn1  Zn  1.0000  0.66615  0.53919  0.23912  0.0000
