data_CNYZr
_audit_creation_method           'pos2cif.pl'
_cell_length_a               12.3170003891
_cell_length_b               12.3170003891315
_cell_length_c               20
_cell_angle_alpha            90
_cell_angle_beta             90
_cell_angle_gamma            120.010002136348
_symmetry_space_group_H-M        'P1'
_symmetry_Int_Tables_number      '1'
_symmetry_cell_setting           'triclinic'
loop_
_symmetry_equiv_pos_as_xyz
x,y,z

loop_
_atom_site_label
_atom_site_type_symbol
_atom_site_occupancy
_atom_site_fract_x
_atom_site_fract_y
_atom_site_fract_z
_atom_site_U_iso_or_equiv
C1  C  1.0000  0.00214  0.20178  0.13628  0.0000
C2  C  1.0000  0.06946  0.13559  0.13787  0.0000
C3  C  1.0000  0.20233  0.20132  0.13896  0.0000
C4  C  1.0000  0.26543  0.13076  0.13834  0.0000
C5  C  1.0000  0.39756  0.19476  0.13467  0.0000
C6  C  1.0000  0.46666  0.13031  0.13408  0.0000
C7  C  1.0000  0.60005  0.19981  0.13395  0.0000
C8  C  1.0000  0.66857  0.13458  0.13637  0.0000
C9  C  1.0000  0.80145  0.20292  0.13562  0.0000
C10  C  1.0000  0.86890  0.13620  0.13660  0.0000
C11  C  1.0000  -0.00049  0.40090  0.13472  0.0000
C12  C  1.0000  0.06708  0.33352  0.13485  0.0000
C13  C  1.0000  0.20138  0.40093  0.13454  0.0000
C14  C  1.0000  0.27189  0.33593  0.13953  0.0000
C15  C  1.0000  0.46213  0.32505  0.13524  0.0000
C16  C  1.0000  0.66253  0.33214  0.13435  0.0000
C17  C  1.0000  0.79720  0.40436  0.13810  0.0000
C18  C  1.0000  0.86612  0.33682  0.13555  0.0000
C19  C  1.0000  0.00009  0.60148  0.14138  0.0000
C20  C  1.0000  0.06685  0.53425  0.13662  0.0000
C21  C  1.0000  0.20072  0.59739  0.13754  0.0000
C22  C  1.0000  0.86618  0.53861  0.14423  0.0000
C23  C  1.0000  0.00276  0.80220  0.14360  0.0000
C24  C  1.0000  0.07003  0.73470  0.14337  0.0000
C25  C  1.0000  0.20350  0.79845  0.14335  0.0000
C26  C  1.0000  0.27239  0.73083  0.14493  0.0000
C27  C  1.0000  0.40842  0.80082  0.14968  0.0000
C28  C  1.0000  0.60692  0.80562  0.15267  0.0000
C29  C  1.0000  0.80341  0.80472  0.14794  0.0000
C30  C  1.0000  0.87035  0.73688  0.14816  0.0000
C31  C  1.0000  0.00354  0.00233  0.13992  0.0000
C32  C  1.0000  0.06857  0.93439  0.14114  0.0000
C33  C  1.0000  0.20116  0.99875  0.13988  0.0000
C34  C  1.0000  0.26859  0.93173  0.14084  0.0000
C35  C  1.0000  0.40145  -0.00197  0.13813  0.0000
C36  C  1.0000  0.46999  0.93249  0.14236  0.0000
C37  C  1.0000  0.60341  0.00196  0.14073  0.0000
C38  C  1.0000  0.67160  0.93709  0.14285  0.0000
C39  C  1.0000  0.80421  0.00387  0.13980  0.0000
C40  C  1.0000  0.87067  0.93660  0.14223  0.0000
N1  N  1.0000  0.59025  0.38989  0.13222  0.0000
N2  N  1.0000  0.80507  0.60702  0.15432  0.0000
N3  N  1.0000  0.67158  0.74017  0.15500  0.0000
N4  N  1.0000  0.40594  0.39895  0.14424  0.0000
N5  N  1.0000  0.26309  0.53037  0.13308  0.0000
N6  N  1.0000  0.47954  0.74243  0.16219  0.0000
Y1  Y  1.0000  0.38379  0.55362  0.21639  0.0000
Zr1  Zr  1.0000  0.61262  0.54784  0.18352  0.0000
