data_CNZn
_audit_creation_method           'pos2cif.pl'
_cell_length_a               12.3170003891
_cell_length_b               12.3170003891315
_cell_length_c               20
_cell_angle_alpha            90
_cell_angle_beta             90
_cell_angle_gamma            120.010002136348
_symmetry_space_group_H-M        'P1'
_symmetry_Int_Tables_number      '1'
_symmetry_cell_setting           'triclinic'
loop_
_symmetry_equiv_pos_as_xyz
x,y,z

loop_
_atom_site_label
_atom_site_type_symbol
_atom_site_occupancy
_atom_site_fract_x
_atom_site_fract_y
_atom_site_fract_z
_atom_site_U_iso_or_equiv
C1  C  1.0000  0.99801  0.19918  0.14194  0.0000
C2  C  1.0000  0.06508  0.13290  0.14162  0.0000
C3  C  1.0000  0.19720  0.19732  0.14180  0.0000
C4  C  1.0000  0.26354  0.12961  0.14194  0.0000
C5  C  1.0000  0.39537  0.19587  0.14264  0.0000
C6  C  1.0000  0.46507  0.13169  0.14311  0.0000
C7  C  1.0000  0.59790  0.20200  0.14356  0.0000
C8  C  1.0000  0.66621  0.13561  0.14336  0.0000
C9  C  1.0000  0.79856  0.20294  0.14302  0.0000
C10  C  1.0000  0.86594  0.13559  0.14230  0.0000
C11  C  1.0000  0.99562  0.39932  0.14313  0.0000
C12  C  1.0000  0.06142  0.33040  0.14245  0.0000
C13  C  1.0000  0.19306  0.39454  0.14271  0.0000
C14  C  1.0000  0.26176  0.32873  0.14239  0.0000
C15  C  1.0000  0.45746  0.32727  0.14330  0.0000
C16  C  1.0000  0.65881  0.33551  0.14399  0.0000
C17  C  1.0000  0.79428  0.40540  0.14395  0.0000
C18  C  1.0000  0.86234  0.33659  0.14337  0.0000
C19  C  1.0000  0.00135  0.60137  0.14347  0.0000
C20  C  1.0000  0.06601  0.53241  0.14343  0.0000
C21  C  1.0000  0.20019  0.59372  0.14370  0.0000
C22  C  1.0000  0.86717  0.54007  0.14393  0.0000
C23  C  1.0000  0.00594  0.80338  0.14251  0.0000
C24  C  1.0000  0.07173  0.73445  0.14306  0.0000
C25  C  1.0000  0.20502  0.79720  0.14315  0.0000
C26  C  1.0000  0.27308  0.72839  0.14375  0.0000
C27  C  1.0000  0.40856  0.79831  0.14397  0.0000
C28  C  1.0000  0.60993  0.80654  0.14378  0.0000
C29  C  1.0000  0.80563  0.80507  0.14284  0.0000
C30  C  1.0000  0.87431  0.73924  0.14304  0.0000
C31  C  1.0000  0.00230  0.00090  0.14169  0.0000
C32  C  1.0000  0.06936  0.93460  0.14188  0.0000
C33  C  1.0000  0.20144  0.99820  0.14200  0.0000
C34  C  1.0000  0.26883  0.93086  0.14270  0.0000
C35  C  1.0000  0.40119  0.99821  0.14310  0.0000
C36  C  1.0000  0.46950  0.93181  0.14356  0.0000
C37  C  1.0000  0.60234  0.00213  0.14340  0.0000
C38  C  1.0000  0.67203  0.93794  0.14314  0.0000
C39  C  1.0000  0.80385  0.00419  0.14237  0.0000
C40  C  1.0000  0.87019  0.93648  0.14215  0.0000
N1  N  1.0000  0.58408  0.39220  0.14427  0.0000
N2  N  1.0000  0.80983  0.61094  0.14417  0.0000
N3  N  1.0000  0.67374  0.73977  0.14365  0.0000
N4  N  1.0000  0.39365  0.39405  0.14310  0.0000
N5  N  1.0000  0.25752  0.52284  0.14379  0.0000
N6  N  1.0000  0.48329  0.74162  0.14444  0.0000
Zn1  Zn  1.0000  0.42954  0.56674  0.14545  0.0000
Zn2  Zn  1.0000  0.63779  0.56707  0.14588  0.0000
