data_CNZnZr
_audit_creation_method           'pos2cif.pl'
_cell_length_a               12.3170003891
_cell_length_b               12.3170003891315
_cell_length_c               20
_cell_angle_alpha            90
_cell_angle_beta             90
_cell_angle_gamma            120.010002136348
_symmetry_space_group_H-M        'P1'
_symmetry_Int_Tables_number      '1'
_symmetry_cell_setting           'triclinic'
loop_
_symmetry_equiv_pos_as_xyz
x,y,z

loop_
_atom_site_label
_atom_site_type_symbol
_atom_site_occupancy
_atom_site_fract_x
_atom_site_fract_y
_atom_site_fract_z
_atom_site_U_iso_or_equiv
C1  C  1.0000  0.00336  0.20221  0.13683  0.0000
C2  C  1.0000  0.07015  0.13566  0.13763  0.0000
C3  C  1.0000  0.20358  0.20190  0.13834  0.0000
C4  C  1.0000  0.26528  0.12926  0.13733  0.0000
C5  C  1.0000  0.39696  0.19179  0.13507  0.0000
C6  C  1.0000  0.46640  0.12871  0.13377  0.0000
C7  C  1.0000  0.59999  0.19900  0.13288  0.0000
C8  C  1.0000  0.66891  0.13474  0.13330  0.0000
C9  C  1.0000  0.80187  0.20301  0.13476  0.0000
C10  C  1.0000  0.87008  0.13689  0.13466  0.0000
C11  C  1.0000  -0.00033  0.40035  0.14226  0.0000
C12  C  1.0000  0.06886  0.33423  0.14080  0.0000
C13  C  1.0000  0.20303  0.40191  0.14610  0.0000
C14  C  1.0000  0.27356  0.33599  0.14119  0.0000
C15  C  1.0000  0.46127  0.32233  0.13422  0.0000
C16  C  1.0000  0.66215  0.33164  0.13456  0.0000
C17  C  1.0000  0.79630  0.40328  0.13999  0.0000
C18  C  1.0000  0.86586  0.33638  0.13876  0.0000
C19  C  1.0000  -0.00159  0.60021  0.14600  0.0000
C20  C  1.0000  0.06586  0.53291  0.14558  0.0000
C21  C  1.0000  0.20053  0.59480  0.15063  0.0000
C22  C  1.0000  0.86323  0.53791  0.14606  0.0000
C23  C  1.0000  0.00168  0.80051  0.14430  0.0000
C24  C  1.0000  0.06899  0.73334  0.14618  0.0000
C25  C  1.0000  0.20341  0.79664  0.14536  0.0000
C26  C  1.0000  0.27242  0.72974  0.14845  0.0000
C27  C  1.0000  0.40896  0.79906  0.14478  0.0000
C28  C  1.0000  0.60620  0.80650  0.14191  0.0000
C29  C  1.0000  0.80304  0.80442  0.14295  0.0000
C30  C  1.0000  0.86813  0.73519  0.14649  0.0000
C31  C  1.0000  0.00392  0.00206  0.13876  0.0000
C32  C  1.0000  0.06786  0.93292  0.14094  0.0000
C33  C  1.0000  0.20054  0.99696  0.13935  0.0000
C34  C  1.0000  0.26802  0.93004  0.14052  0.0000
C35  C  1.0000  0.40101  0.99625  0.13672  0.0000
C36  C  1.0000  0.46995  0.93162  0.13762  0.0000
C37  C  1.0000  0.60326  0.00162  0.13460  0.0000
C38  C  1.0000  0.67243  0.93804  0.13544  0.0000
C39  C  1.0000  0.80523  0.00464  0.13505  0.0000
C40  C  1.0000  0.87096  0.93668  0.13863  0.0000
N1  N  1.0000  0.59004  0.38878  0.13306  0.0000
N2  N  1.0000  0.79959  0.60498  0.15114  0.0000
N3  N  1.0000  0.67125  0.74053  0.14499  0.0000
N4  N  1.0000  0.40635  0.39618  0.13852  0.0000
N5  N  1.0000  0.26204  0.52832  0.15674  0.0000
N6  N  1.0000  0.48051  0.74158  0.14934  0.0000
Zn1  Zn  1.0000  0.41217  0.58976  0.22642  0.0000
Zr1  Zr  1.0000  0.59376  0.54966  0.17299  0.0000
