data_CNZr
_audit_creation_method           'pos2cif.pl'
_cell_length_a               12.3170003891
_cell_length_b               12.3170003891315
_cell_length_c               20
_cell_angle_alpha            90
_cell_angle_beta             90
_cell_angle_gamma            120.010002136348
_symmetry_space_group_H-M        'P1'
_symmetry_Int_Tables_number      '1'
_symmetry_cell_setting           'triclinic'
loop_
_symmetry_equiv_pos_as_xyz
x,y,z

loop_
_atom_site_label
_atom_site_type_symbol
_atom_site_occupancy
_atom_site_fract_x
_atom_site_fract_y
_atom_site_fract_z
_atom_site_U_iso_or_equiv
C1  C  1.0000  -0.00082  0.19996  0.13929  0.0000
C2  C  1.0000  0.06595  0.13318  0.14022  0.0000
C3  C  1.0000  0.19841  0.19795  0.14111  0.0000
C4  C  1.0000  0.26483  0.13124  0.13994  0.0000
C5  C  1.0000  0.39790  0.19812  0.14037  0.0000
C6  C  1.0000  0.46575  0.13195  0.14125  0.0000
C7  C  1.0000  0.59858  0.20157  0.14249  0.0000
C8  C  1.0000  0.66636  0.13506  0.14073  0.0000
C9  C  1.0000  0.79943  0.20235  0.13942  0.0000
C10  C  1.0000  0.86649  0.13505  0.13951  0.0000
C11  C  1.0000  -0.00243  0.39955  0.13483  0.0000
C12  C  1.0000  0.06403  0.33203  0.13689  0.0000
C13  C  1.0000  0.19788  0.39796  0.13680  0.0000
C14  C  1.0000  0.26589  0.33095  0.14162  0.0000
C15  C  1.0000  0.46172  0.32915  0.14664  0.0000
C16  C  1.0000  0.66070  0.33515  0.14596  0.0000
C17  C  1.0000  0.79524  0.40367  0.13989  0.0000
C18  C  1.0000  0.86371  0.33557  0.13769  0.0000
C19  C  1.0000  0.00051  0.60076  0.13313  0.0000
C20  C  1.0000  0.06688  0.53309  0.13292  0.0000
C21  C  1.0000  0.20045  0.59600  0.13441  0.0000
C22  C  1.0000  0.86696  0.53785  0.13482  0.0000
C23  C  1.0000  0.00338  0.80180  0.13730  0.0000
C24  C  1.0000  0.06983  0.73428  0.13508  0.0000
C25  C  1.0000  0.20369  0.79825  0.13770  0.0000
C26  C  1.0000  0.27216  0.73014  0.13978  0.0000
C27  C  1.0000  0.40669  0.79867  0.14608  0.0000
C28  C  1.0000  0.60568  0.80465  0.14727  0.0000
C29  C  1.0000  0.80155  0.80288  0.14237  0.0000
C30  C  1.0000  0.86956  0.73590  0.13753  0.0000
C31  C  1.0000  0.00145  0.00065  0.14038  0.0000
C32  C  1.0000  0.06824  0.93389  0.13940  0.0000
C33  C  1.0000  0.20093  -0.00122  0.13928  0.0000
C34  C  1.0000  0.26800  0.93148  0.13927  0.0000
C35  C  1.0000  0.40106  -0.00125  0.14055  0.0000
C36  C  1.0000  0.46883  0.93226  0.14261  0.0000
C37  C  1.0000  0.60166  0.00188  0.14159  0.0000
C38  C  1.0000  0.66951  0.93570  0.14100  0.0000
C39  C  1.0000  0.80258  0.00259  0.14046  0.0000
C40  C  1.0000  0.86900  0.93587  0.14162  0.0000
N1  N  1.0000  0.58943  0.39503  0.15576  0.0000
N2  N  1.0000  0.80510  0.60571  0.13607  0.0000
N3  N  1.0000  0.67018  0.73838  0.15013  0.0000
N4  N  1.0000  0.39725  0.39543  0.14933  0.0000
N5  N  1.0000  0.26235  0.52816  0.13521  0.0000
N6  N  1.0000  0.47787  0.73876  0.15607  0.0000
Zr1  Zr  1.0000  0.40714  0.55191  0.19987  0.0000
Zr2  Zr  1.0000  0.65948  0.58115  0.20031  0.0000
